@<TRIPOS>MOLECULE
query molecule
   18    20     1     0     0
SMALL
NO_CHARGE

@<TRIPOS>ATOM
      1 C4         74.9143   48.5698    8.7786 C.ar      1 MOL     0.0725
      2 C5         74.1312   47.4216    8.6365 C.ar      1 MOL     0.0009
      3 C6         72.8219   47.5300    8.1669 C.ar      1 MOL     0.0187
      4 C7         70.9667   48.9044    7.3666 C.2       1 MOL    -0.0112
      5 C8         69.8910   48.7986    8.1980 C.2       1 MOL     0.0163
      6 C10        70.6313   49.1730    6.0915 C.2       1 MOL     0.0538
      7 N12        76.1830   48.4849    9.2105 N.ar      1 MOL    -0.2334
      8 C13        76.7413   47.2964    9.5242 C.ar      1 MOL     0.1153
      9 C15        74.6747   46.1772    8.9567 C.ar      1 MOL     0.0138
     10 C14        75.9986   46.1139    9.4084 C.ar      1 MOL     0.0445
     11 N16        77.9981   47.2552    9.9661 N.pl3     1 MOL    -0.3432
     12 C3         74.3809   49.8149    8.4484 C.ar      1 MOL     0.0295
     13 C2         73.0676   49.9241    7.9847 C.ar      1 MOL     0.0108
     14 C1         72.2726   48.7844    7.8540 C.ar      1 MOL    -0.0171
     15 C11        68.6628   48.9422    7.6759 C.2       1 MOL     0.0459
     16 S9         68.9263   49.2469    6.0516 S.3       1 MOL    -0.1054
     17 H161       78.5275   48.1098   10.0636 H         1 MOL     0.1442
     18 H162       78.4211   46.3693   10.2035 H         1 MOL     0.1442
@<TRIPOS>BOND
     1    2    1 ar
     2    1    7 ar
     3    1   12 ar
     4    3    2 ar
     5    2    9 ar
     6   14    3 ar
     7    4    5 1 
     8    4    6 2 
     9    4   14 1 
    10    5   15 2 
    11    6   16 1 
    12    7    8 ar
    13    8   10 ar
    14    8   11 1 
    15    9   10 ar
    16   12   13 ar
    17   13   14 ar
    18   15   16 1 
    19   17   11 1 
    20   18   11 1 
@<TRIPOS>SUBSTRUCTURE
1 MOL         1
@<TRIPOS>MOLECULE
query molecule
   18    20     1     0     0
SMALL
NO_CHARGE

@<TRIPOS>ATOM
      1 C4         72.9154   48.6727    7.0615 C.ar      1 MOL     0.0725
      2 C5         71.9380   49.6681    7.1383 C.ar      1 MOL     0.0009
      3 C6         72.3171   51.0106    7.1625 C.ar      1 MOL     0.0187
      4 C7         74.0655   52.7176    7.1387 C.2       1 MOL    -0.0112
      5 C8         75.0597   53.1579    7.9617 C.2       1 MOL     0.0163
      6 C10        73.5679   53.6800    6.3407 C.2       1 MOL     0.0538
      7 N12        72.5706   47.3757    7.0175 N.ar      1 MOL    -0.2334
      8 C13        71.2771   46.9901    7.0496 C.ar      1 MOL     0.1153
      9 C15        70.5916   49.3050    7.1786 C.ar      1 MOL     0.0138
     10 C14        70.2564   47.9461    7.1350 C.ar      1 MOL     0.0445
     11 N16        70.9758   45.6920    7.0216 N.pl3     1 MOL    -0.3432
     12 C3         74.2620   49.0297    7.0084 C.ar      1 MOL     0.0295
     13 C2         74.6418   50.3738    7.0396 C.ar      1 MOL     0.0108
     14 C1         73.6734   51.3746    7.1317 C.ar      1 MOL    -0.0171
     15 C11        75.4056   54.4538    7.9100 C.2       1 MOL     0.0459
     16 S9         74.4142   55.1099    6.7322 S.3       1 MOL    -0.1054
     17 H161       71.7131   45.0033    6.9754 H         1 MOL     0.1442
     18 H162       70.0102   45.3971    7.0465 H         1 MOL     0.1442
@<TRIPOS>BOND
     1    2    1 ar
     2    1    7 ar
     3    1   12 ar
     4    3    2 ar
     5    2    9 ar
     6   14    3 ar
     7    4    5 1 
     8    4    6 2 
     9    4   14 1 
    10    5   15 2 
    11    6   16 1 
    12    7    8 ar
    13    8   10 ar
    14    8   11 1 
    15    9   10 ar
    16   12   13 ar
    17   13   14 ar
    18   15   16 1 
    19   17   11 1 
    20   18   11 1 
@<TRIPOS>SUBSTRUCTURE
1 MOL         1
@<TRIPOS>MOLECULE
query molecule
   18    20     1     0     0
SMALL
NO_CHARGE

@<TRIPOS>ATOM
      1 C4         64.5623   48.0469    9.0872 C.ar      1 MOL     0.0725
      2 C5         65.1694   46.8721    9.5380 C.ar      1 MOL     0.0009
      3 C6         64.7537   46.2940   10.7378 C.ar      1 MOL     0.0187
      4 C7         63.3072   46.3120   12.7072 C.2       1 MOL    -0.0112
      5 C8         61.9840   46.0703   12.9318 C.2       1 MOL     0.0163
      6 C10        64.1028   45.8999   13.7111 C.2       1 MOL     0.0538
      7 N12        64.9345   48.6085    7.9256 N.ar      1 MOL    -0.2334
      8 C13        65.9039   48.0641    7.1598 C.ar      1 MOL     0.1153
      9 C15        66.1786   46.2854    8.7741 C.ar      1 MOL     0.0138
     10 C14        66.5522   46.8910    7.5681 C.ar      1 MOL     0.0445
     11 N16        66.2573   48.6610    6.0216 N.pl3     1 MOL    -0.3432
     12 C3         63.5446   48.6312    9.8400 C.ar      1 MOL     0.0295
     13 C2         63.1332   48.0560   11.0449 C.ar      1 MOL     0.0108
     14 C1         63.7442   46.8909   11.5109 C.ar      1 MOL    -0.0171
     15 C11        61.6269   45.4948   14.0906 C.2       1 MOL     0.0459
     16 S9         63.0696   45.2426   14.9003 S.3       1 MOL    -0.1054
     17 H161       66.3405   49.6668    5.9835 H         1 MOL     0.1442
     18 H162       66.4419   48.1075    5.1973 H         1 MOL     0.1442
@<TRIPOS>BOND
     1    2    1 ar
     2    1    7 ar
     3    1   12 ar
     4    3    2 ar
     5    2    9 ar
     6   14    3 ar
     7    4    5 1 
     8    4    6 2 
     9    4   14 1 
    10    5   15 2 
    11    6   16 1 
    12    7    8 ar
    13    8   10 ar
    14    8   11 1 
    15    9   10 ar
    16   12   13 ar
    17   13   14 ar
    18   15   16 1 
    19   17   11 1 
    20   18   11 1 
@<TRIPOS>SUBSTRUCTURE
1 MOL         1
@<TRIPOS>MOLECULE
query molecule
   18    20     1     0     0
SMALL
NO_CHARGE

@<TRIPOS>ATOM
      1 C4         68.9478   49.7251   12.6627 C.ar      1 MOL     0.0725
      2 C5         70.2938   49.7198   13.0369 C.ar      1 MOL     0.0009
      3 C6         70.7193   50.5126   14.1032 C.ar      1 MOL     0.0187
      4 C7         70.2243   52.1211   15.8750 C.2       1 MOL    -0.0112
      5 C8         70.0970   51.6780   17.1584 C.2       1 MOL     0.0163
      6 C10        70.8099   53.3290   15.7831 C.2       1 MOL     0.0538
      7 N12        68.5146   48.9546   11.6518 N.ar      1 MOL    -0.2334
      8 C13        69.3586   48.1564   10.9639 C.ar      1 MOL     0.1153
      9 C15        71.1947   48.9107   12.3441 C.ar      1 MOL     0.0138
     10 C14        70.7204   48.1185   11.2914 C.ar      1 MOL     0.0445
     11 N16        68.8934   47.4193    9.9555 N.pl3     1 MOL    -0.3432
     12 C3         68.0403   50.5221   13.3591 C.ar      1 MOL     0.0295
     13 C2         68.4678   51.3213   14.4223 C.ar      1 MOL     0.0108
     14 C1         69.8131   51.3343   14.7937 C.ar      1 MOL    -0.0171
     15 C11        70.5273   52.4693   18.1536 C.2       1 MOL     0.0459
     16 S9         71.1370   53.8242   17.3836 S.3       1 MOL    -0.1054
     17 H161       68.2208   47.8110    9.3119 H         1 MOL     0.1442
     18 H162       69.2135   46.4690    9.8349 H         1 MOL     0.1442
@<TRIPOS>BOND
     1    2    1 ar
     2    1    7 ar
     3    1   12 ar
     4    3    2 ar
     5    2    9 ar
     6   14    3 ar
     7    4    5 1 
     8    4    6 2 
     9    4   14 1 
    10    5   15 2 
    11    6   16 1 
    12    7    8 ar
    13    8   10 ar
    14    8   11 1 
    15    9   10 ar
    16   12   13 ar
    17   13   14 ar
    18   15   16 1 
    19   17   11 1 
    20   18   11 1 
@<TRIPOS>SUBSTRUCTURE
1 MOL         1
@<TRIPOS>MOLECULE
query molecule
   18    20     1     0     0
SMALL
NO_CHARGE

@<TRIPOS>ATOM
      1 C4         70.3218   48.0408    9.3223 C.ar      1 MOL     0.0725
      2 C5         71.6455   48.1313    9.7598 C.ar      1 MOL     0.0009
      3 C6         71.9595   48.9366   10.8550 C.ar      1 MOL     0.0187
      4 C7         71.2618   50.4738   12.6218 C.2       1 MOL    -0.0112
      5 C8         72.0673   50.0165   13.6227 C.2       1 MOL     0.0163
      6 C10        70.8518   51.7423   12.8043 C.2       1 MOL     0.0538
      7 N12        69.9959   47.2563    8.2824 N.ar      1 MOL    -0.2334
      8 C13        70.9293   46.5356    7.6251 C.ar      1 MOL     0.1153
      9 C15        72.6367   47.4041    9.1001 C.ar      1 MOL     0.0138
     10 C14        72.2734   46.5955    8.0162 C.ar      1 MOL     0.0445
     11 N16        70.5688   45.7820    6.5865 N.pl3     1 MOL    -0.3432
     12 C3         69.3249   48.7554    9.9852 C.ar      1 MOL     0.0295
     13 C2         69.6405   49.5672   11.0775 C.ar      1 MOL     0.0108
     14 C1         70.9622   49.6759   11.5123 C.ar      1 MOL    -0.0171
     15 C11        72.3348   50.8348   14.6525 C.2       1 MOL     0.0459
     16 S9         71.5250   52.2531   14.2875 S.3       1 MOL    -0.1054
     17 H161       70.6528   44.7768    6.6385 H         1 MOL     0.1442
     18 H162       70.2116   46.2161    5.7474 H         1 MOL     0.1442
@<TRIPOS>BOND
     1    2    1 ar
     2    1    7 ar
     3    1   12 ar
     4    3    2 ar
     5    2    9 ar
     6   14    3 ar
     7    4    5 1 
     8    4    6 2 
     9    4   14 1 
    10    5   15 2 
    11    6   16 1 
    12    7    8 ar
    13    8   10 ar
    14    8   11 1 
    15    9   10 ar
    16   12   13 ar
    17   13   14 ar
    18   15   16 1 
    19   17   11 1 
    20   18   11 1 
@<TRIPOS>SUBSTRUCTURE
1 MOL         1
@<TRIPOS>MOLECULE
query molecule
   18    20     1     0     0
SMALL
NO_CHARGE

@<TRIPOS>ATOM
      1 C4         72.3003   44.5716    9.2648 C.ar      1 MOL     0.0725
      2 C5         73.2662   45.5694    9.1119 C.ar      1 MOL     0.0009
      3 C6         72.8699   46.8934    8.9206 C.ar      1 MOL     0.0187
      4 C7         71.0986   48.5600    8.6837 C.2       1 MOL    -0.0112
      5 C8         70.8838   49.0736    7.4387 C.2       1 MOL     0.0163
      6 C10        70.8334   49.4319    9.6736 C.2       1 MOL     0.0538
      7 N12        72.6610   43.2943    9.4693 N.ar      1 MOL    -0.2334
      8 C13        73.9599   42.9312    9.5302 C.ar      1 MOL     0.1153
      9 C15        74.6180   45.2286    9.1641 C.ar      1 MOL     0.0138
     10 C14        74.9699   43.8898    9.3750 C.ar      1 MOL     0.0445
     11 N16        74.2777   41.6504    9.7174 N.pl3     1 MOL    -0.3432
     12 C3         70.9479   44.9077    9.2260 C.ar      1 MOL     0.0295
     13 C2         70.5511   46.2325    9.0274 C.ar      1 MOL     0.0108
     14 C1         71.5085   47.2338    8.8585 C.ar      1 MOL    -0.0171
     15 C11        70.4725   50.3471    7.3347 C.2       1 MOL     0.0459
     16 S9         70.3420   50.8802    8.9156 S.3       1 MOL    -0.1054
     17 H161       74.7502   41.3657   10.5634 H         1 MOL     0.1442
     18 H162       74.0460   40.9645    9.0131 H         1 MOL     0.1442
@<TRIPOS>BOND
     1    2    1 ar
     2    1    7 ar
     3    1   12 ar
     4    3    2 ar
     5    2    9 ar
     6   14    3 ar
     7    4    5 1 
     8    4    6 2 
     9    4   14 1 
    10    5   15 2 
    11    6   16 1 
    12    7    8 ar
    13    8   10 ar
    14    8   11 1 
    15    9   10 ar
    16   12   13 ar
    17   13   14 ar
    18   15   16 1 
    19   17   11 1 
    20   18   11 1 
@<TRIPOS>SUBSTRUCTURE
1 MOL         1
@<TRIPOS>MOLECULE
query molecule
   18    20     1     0     0
SMALL
NO_CHARGE

@<TRIPOS>ATOM
      1 C4         67.4393   46.5992    8.1805 C.ar      1 MOL     0.0725
      2 C5         68.3364   47.6675    8.2577 C.ar      1 MOL     0.0009
      3 C6         67.9225   48.8811    8.8078 C.ar      1 MOL     0.0187
      4 C7         66.1836   50.2562    9.8357 C.2       1 MOL    -0.0112
      5 C8         64.8871   50.6672    9.7364 C.2       1 MOL     0.0163
      6 C10        66.9549   51.0923   10.5544 C.2       1 MOL     0.0538
      7 N12        67.8235   45.4171    7.6724 N.ar      1 MOL    -0.2334
      8 C13        69.0797   45.2215    7.2180 C.ar      1 MOL     0.1153
      9 C15        69.6411   47.5020    7.7924 C.ar      1 MOL     0.0138
     10 C14        70.0178   46.2612    7.2636 C.ar      1 MOL     0.0445
     11 N16        69.4179   44.0388    6.7048 N.pl3     1 MOL    -0.3432
     12 C3         66.1377   46.7546    8.6553 C.ar      1 MOL     0.0295
     13 C2         65.7213   47.9720    9.1997 C.ar      1 MOL     0.0108
     14 C1         66.6057   49.0496    9.2670 C.ar      1 MOL    -0.0171
     15 C11        64.5368   51.8245   10.3191 C.2       1 MOL     0.0459
     16 S9         65.9429   52.3794   11.0371 S.3       1 MOL    -0.1054
     17 H161       69.1948   43.8229    5.7437 H         1 MOL     0.1442
     18 H162       69.8973   43.3585    7.2770 H         1 MOL     0.1442
@<TRIPOS>BOND
     1    2    1 ar
     2    1    7 ar
     3    1   12 ar
     4    3    2 ar
     5    2    9 ar
     6   14    3 ar
     7    4    5 1 
     8    4    6 2 
     9    4   14 1 
    10    5   15 2 
    11    6   16 1 
    12    7    8 ar
    13    8   10 ar
    14    8   11 1 
    15    9   10 ar
    16   12   13 ar
    17   13   14 ar
    18   15   16 1 
    19   17   11 1 
    20   18   11 1 
@<TRIPOS>SUBSTRUCTURE
1 MOL         1
@<TRIPOS>MOLECULE
query molecule
   18    20     1     0     0
SMALL
NO_CHARGE

@<TRIPOS>ATOM
      1 C4         64.9281   51.5301    9.9431 C.ar      1 MOL     0.0725
      2 C5         63.7042   50.8590    9.8824 C.ar      1 MOL     0.0009
      3 C6         63.6690   49.5151    9.5092 C.ar      1 MOL     0.0187
      4 C7         64.8290   47.4801    8.8130 C.2       1 MOL    -0.0112
      5 C8         65.9855   46.7764    8.6486 C.2       1 MOL     0.0163
      6 C10        63.7219   46.7349    8.6411 C.2       1 MOL     0.0538
      7 N12        64.9854   52.8181   10.3187 N.ar      1 MOL    -0.2334
      8 C13        63.8705   53.5062   10.6448 C.ar      1 MOL     0.1153
      9 C15        62.5315   51.5411   10.2077 C.ar      1 MOL     0.0138
     10 C14        62.6159   52.8847   10.5932 C.ar      1 MOL     0.0445
     11 N16        63.9669   54.7883   10.9960 N.pl3     1 MOL    -0.3432
     12 C3         66.1047   50.8504    9.6313 C.ar      1 MOL     0.0295
     13 C2         66.0687   49.5066    9.2509 C.ar      1 MOL     0.0108
     14 C1         64.8494   48.8320    9.1726 C.ar      1 MOL    -0.0171
     15 C11        65.9024   45.4771    8.3222 C.2       1 MOL     0.0459
     16 S9         64.2603   45.1628    8.2505 S.3       1 MOL    -0.1054
     17 H161       64.0224   55.5038   10.2853 H         1 MOL     0.1442
     18 H162       63.9844   55.0444   11.9728 H         1 MOL     0.1442
@<TRIPOS>BOND
     1    2    1 ar
     2    1    7 ar
     3    1   12 ar
     4    3    2 ar
     5    2    9 ar
     6   14    3 ar
     7    4    5 1 
     8    4    6 2 
     9    4   14 1 
    10    5   15 2 
    11    6   16 1 
    12    7    8 ar
    13    8   10 ar
    14    8   11 1 
    15    9   10 ar
    16   12   13 ar
    17   13   14 ar
    18   15   16 1 
    19   17   11 1 
    20   18   11 1 
@<TRIPOS>SUBSTRUCTURE
1 MOL         1
@<TRIPOS>MOLECULE
query molecule
   18    20     1     0     0
SMALL
NO_CHARGE

@<TRIPOS>ATOM
      1 C4         59.3127   49.4991   13.7047 C.ar      1 MOL     0.0725
      2 C5         59.9076   49.7914   14.9346 C.ar      1 MOL     0.0009
      3 C6         59.8144   51.0804   15.4602 C.ar      1 MOL     0.0187
      4 C7         59.0317   53.3884   15.2810 C.2       1 MOL    -0.0112
      5 C8         59.4656   54.4748   14.5802 C.2       1 MOL     0.0163
      6 C10        58.4649   53.7051   16.4595 C.2       1 MOL     0.0538
      7 N12        59.3744   48.2600   13.1909 N.ar      1 MOL    -0.2334
      8 C13        60.0119   47.2611   13.8377 C.ar      1 MOL     0.1153
      9 C15        60.5793   48.7840   15.6277 C.ar      1 MOL     0.0138
     10 C14        60.6333   47.5005   15.0704 C.ar      1 MOL     0.0445
     11 N16        60.0662   46.0487   13.2866 N.pl3     1 MOL    -0.3432
     12 C3         58.6295   50.4985   13.0132 C.ar      1 MOL     0.0295
     13 C2         58.5421   51.7910   13.5363 C.ar      1 MOL     0.0108
     14 C1         59.1462   52.0962   14.7568 C.ar      1 MOL    -0.0171
     15 C11        59.3113   55.6912   15.1263 C.2       1 MOL     0.0459
     16 S9         58.5554   55.4046   16.5916 S.3       1 MOL    -0.1054
     17 H161       59.6010   45.2704   13.7315 H         1 MOL     0.1442
     18 H162       60.5726   45.9082   12.4241 H         1 MOL     0.1442
@<TRIPOS>BOND
     1    2    1 ar
     2    1    7 ar
     3    1   12 ar
     4    3    2 ar
     5    2    9 ar
     6   14    3 ar
     7    4    5 1 
     8    4    6 2 
     9    4   14 1 
    10    5   15 2 
    11    6   16 1 
    12    7    8 ar
    13    8   10 ar
    14    8   11 1 
    15    9   10 ar
    16   12   13 ar
    17   13   14 ar
    18   15   16 1 
    19   17   11 1 
    20   18   11 1 
@<TRIPOS>SUBSTRUCTURE
1 MOL         1
@<TRIPOS>MOLECULE
query molecule
   18    20     1     0     0
SMALL
NO_CHARGE

@<TRIPOS>ATOM
      1 C4         67.3906   46.2712    7.5378 C.ar      1 MOL     0.0725
      2 C5         67.2048   44.9342    7.8982 C.ar      1 MOL     0.0009
      3 C6         68.2564   44.0276    7.7620 C.ar      1 MOL     0.0187
      4 C7         70.5638   43.5424    7.1201 C.2       1 MOL    -0.0112
      5 C8         70.6668   42.7154    6.0408 C.2       1 MOL     0.0163
      6 C10        71.5916   43.4271    7.9808 C.2       1 MOL     0.0538
      7 N12        66.3972   47.1636    7.6795 N.ar      1 MOL    -0.2334
      8 C13        65.1915   46.8025    8.1679 C.ar      1 MOL     0.1153
      9 C15        65.9695   44.5253    8.4015 C.ar      1 MOL     0.0138
     10 C14        64.9476   45.4731    8.5370 C.ar      1 MOL     0.0445
     11 N16        64.2252   47.7141    8.2772 N.pl3     1 MOL    -0.3432
     12 C3         68.6266   46.6885    7.0460 C.ar      1 MOL     0.0295
     13 C2         69.6775   45.7791    6.9030 C.ar      1 MOL     0.0108
     14 C1         69.4966   44.4384    7.2460 C.ar      1 MOL    -0.0171
     15 C11        71.7234   41.8910    5.9655 C.2       1 MOL     0.0459
     16 S9         72.6198   42.2254    7.3385 S.3       1 MOL    -0.1054
     17 H161       63.8787   47.9759    9.1890 H         1 MOL     0.1442
     18 H162       63.8395   48.1430    7.4481 H         1 MOL     0.1442
@<TRIPOS>BOND
     1    2    1 ar
     2    1    7 ar
     3    1   12 ar
     4    3    2 ar
     5    2    9 ar
     6   14    3 ar
     7    4    5 1 
     8    4    6 2 
     9    4   14 1 
    10    5   15 2 
    11    6   16 1 
    12    7    8 ar
    13    8   10 ar
    14    8   11 1 
    15    9   10 ar
    16   12   13 ar
    17   13   14 ar
    18   15   16 1 
    19   17   11 1 
    20   18   11 1 
@<TRIPOS>SUBSTRUCTURE
1 MOL         1
@<TRIPOS>MOLECULE
query molecule
   18    20     1     0     0
SMALL
NO_CHARGE

@<TRIPOS>ATOM
      1 C4         72.2611   45.4397    4.1386 C.ar      1 MOL     0.0725
      2 C5         72.9825   45.4898    5.3341 C.ar      1 MOL     0.0009
      3 C6         74.1130   46.3021    5.4272 C.ar      1 MOL     0.0187
      4 C7         75.6709   47.8868    4.4109 C.2       1 MOL    -0.0112
      5 C8         75.7882   48.8131    5.4049 C.2       1 MOL     0.0163
      6 C10        76.7389   47.8429    3.5937 C.2       1 MOL     0.0538
      7 N12        71.1592   44.6793    4.0346 N.ar      1 MOL    -0.2334
      8 C13        70.7148   43.9388    5.0724 C.ar      1 MOL     0.1153
      9 C15        72.5545   44.7331    6.4252 C.ar      1 MOL     0.0138
     10 C14        71.4046   43.9451    6.2919 C.ar      1 MOL     0.0445
     11 N16        69.6267   43.1833    4.9243 N.pl3     1 MOL    -0.3432
     12 C3         72.6767   46.2031    3.0486 C.ar      1 MOL     0.0295
     13 C2         73.8128   47.0111    3.1398 C.ar      1 MOL     0.0108
     14 C1         74.5486   47.0560    4.3249 C.ar      1 MOL    -0.0171
     15 C11        76.8971   49.5684    5.4473 C.2       1 MOL     0.0459
     16 S9         77.8230   49.0336    4.1600 S.3       1 MOL    -0.1054
     17 H161       69.4514   42.7170    4.0458 H         1 MOL     0.1442
     18 H162       68.9776   43.0771    5.6908 H         1 MOL     0.1442
@<TRIPOS>BOND
     1    2    1 ar
     2    1    7 ar
     3    1   12 ar
     4    3    2 ar
     5    2    9 ar
     6   14    3 ar
     7    4    5 1 
     8    4    6 2 
     9    4   14 1 
    10    5   15 2 
    11    6   16 1 
    12    7    8 ar
    13    8   10 ar
    14    8   11 1 
    15    9   10 ar
    16   12   13 ar
    17   13   14 ar
    18   15   16 1 
    19   17   11 1 
    20   18   11 1 
@<TRIPOS>SUBSTRUCTURE
1 MOL         1
@<TRIPOS>MOLECULE
query molecule
   18    20     1     0     0
SMALL
NO_CHARGE

@<TRIPOS>ATOM
      1 C4         72.9276   47.8485    4.2307 C.ar      1 MOL     0.0725
      2 C5         73.6977   46.7462    4.6101 C.ar      1 MOL     0.0009
      3 C6         74.2135   46.6743    5.9044 C.ar      1 MOL     0.0187
      4 C7         74.4833   47.6402    8.1328 C.2       1 MOL    -0.0112
      5 C8         73.6452   47.5197    9.2018 C.2       1 MOL     0.0163
      6 C10        75.7853   47.6368    8.4724 C.2       1 MOL     0.0538
      7 N12        72.4059   47.9275    2.9959 N.ar      1 MOL    -0.2334
      8 C13        72.6087   46.9539    2.0828 C.ar      1 MOL     0.1153
      9 C15        73.9317   45.7242    3.6898 C.ar      1 MOL     0.0138
     10 C14        73.3803   45.8303    2.4071 C.ar      1 MOL     0.0445
     11 N16        72.0884   47.0772    0.8618 N.pl3     1 MOL    -0.3432
     12 C3         72.6799   48.8672    5.1498 C.ar      1 MOL     0.0295
     13 C2         73.2022   48.7983    6.4437 C.ar      1 MOL     0.0108
     14 C1         73.9854   47.7086    6.8271 C.ar      1 MOL    -0.0171
     15 C11        74.1822   47.4391   10.4293 C.2       1 MOL     0.0459
     16 S9         75.8348   47.5006   10.1732 S.3       1 MOL    -0.1054
     17 H161       72.0462   47.9845    0.4201 H         1 MOL     0.1442
     18 H162       71.7365   46.2633    0.3784 H         1 MOL     0.1442
@<TRIPOS>BOND
     1    2    1 ar
     2    1    7 ar
     3    1   12 ar
     4    3    2 ar
     5    2    9 ar
     6   14    3 ar
     7    4    5 1 
     8    4    6 2 
     9    4   14 1 
    10    5   15 2 
    11    6   16 1 
    12    7    8 ar
    13    8   10 ar
    14    8   11 1 
    15    9   10 ar
    16   12   13 ar
    17   13   14 ar
    18   15   16 1 
    19   17   11 1 
    20   18   11 1 
@<TRIPOS>SUBSTRUCTURE
1 MOL         1
@<TRIPOS>MOLECULE
query molecule
   18    20     1     0     0
SMALL
NO_CHARGE

@<TRIPOS>ATOM
      1 C4         70.8727   46.9056    7.4979 C.ar      1 MOL     0.0725
      2 C5         69.9612   45.9530    7.9603 C.ar      1 MOL     0.0009
      3 C6         68.6495   46.3317    8.2476 C.ar      1 MOL     0.0187
      4 C7         66.9213   48.0553    8.3665 C.2       1 MOL    -0.0112
      5 C8         65.8942   47.6781    7.5525 C.2       1 MOL     0.0163
      6 C10        66.5215   48.7719    9.4328 C.2       1 MOL     0.0538
      7 N12        72.1343   46.5575    7.1974 N.ar      1 MOL    -0.2334
      8 C13        72.5647   45.2852    7.3338 C.ar      1 MOL     0.1153
      9 C15        70.3737   44.6296    8.1182 C.ar      1 MOL     0.0138
     10 C14        71.6950   44.2911    7.8016 C.ar      1 MOL     0.0445
     11 N16        73.8294   44.9826    7.0416 N.pl3     1 MOL    -0.3432
     12 C3         70.4631   48.2271    7.3263 C.ar      1 MOL     0.0295
     13 C2         69.1515   48.6077    7.6206 C.ar      1 MOL     0.0108
     14 C1         68.2381   47.6664    8.0975 C.ar      1 MOL    -0.0171
     15 C11        64.6495   48.0653    7.8724 C.2       1 MOL     0.0459
     16 S9         64.8276   48.9304    9.2939 S.3       1 MOL    -0.1054
     17 H161       74.3626   44.3886    7.6604 H         1 MOL     0.1442
     18 H162       74.2547   45.3474    6.2012 H         1 MOL     0.1442
@<TRIPOS>BOND
     1    2    1 ar
     2    1    7 ar
     3    1   12 ar
     4    3    2 ar
     5    2    9 ar
     6   14    3 ar
     7    4    5 1 
     8    4    6 2 
     9    4   14 1 
    10    5   15 2 
    11    6   16 1 
    12    7    8 ar
    13    8   10 ar
    14    8   11 1 
    15    9   10 ar
    16   12   13 ar
    17   13   14 ar
    18   15   16 1 
    19   17   11 1 
    20   18   11 1 
@<TRIPOS>SUBSTRUCTURE
1 MOL         1
@<TRIPOS>MOLECULE
query molecule
   18    20     1     0     0
SMALL
NO_CHARGE

@<TRIPOS>ATOM
      1 C4         69.7787   48.2986    7.7429 C.ar      1 MOL     0.0725
      2 C5         68.8849   48.7442    6.7660 C.ar      1 MOL     0.0009
      3 C6         67.5204   48.4904    6.9082 C.ar      1 MOL     0.0187
      4 C7         65.6672   47.5258    8.1758 C.2       1 MOL    -0.0112
      5 C8         64.9002   48.3107    8.9854 C.2       1 MOL     0.0163
      6 C10        64.9678   46.5631    7.5476 C.2       1 MOL     0.0538
      7 N12        71.0934   48.5496    7.6344 N.ar      1 MOL    -0.2334
      8 C13        71.5949   49.2329    6.5835 C.ar      1 MOL     0.1153
      9 C15        69.3694   49.4489    5.6638 C.ar      1 MOL     0.0138
     10 C14        70.7447   49.6956    5.5706 C.ar      1 MOL     0.0445
     11 N16        72.9081   49.4468    6.5030 N.pl3     1 MOL    -0.3432
     12 C3         69.2992   47.6047    8.8529 C.ar      1 MOL     0.0295
     13 C2         67.9336   47.3445    8.9918 C.ar      1 MOL     0.0108
     14 C1         67.0348   47.7723    8.0135 C.ar      1 MOL    -0.0171
     15 C11        63.5899   48.0372    9.0861 C.2       1 MOL     0.0459
     16 S9         63.3518   46.7269    8.0728 S.3       1 MOL    -0.1054
     17 H161       73.3892   49.3098    5.6256 H         1 MOL     0.1442
     18 H162       73.4219   49.7460    7.3194 H         1 MOL     0.1442
@<TRIPOS>BOND
     1    2    1 ar
     2    1    7 ar
     3    1   12 ar
     4    3    2 ar
     5    2    9 ar
     6   14    3 ar
     7    4    5 1 
     8    4    6 2 
     9    4   14 1 
    10    5   15 2 
    11    6   16 1 
    12    7    8 ar
    13    8   10 ar
    14    8   11 1 
    15    9   10 ar
    16   12   13 ar
    17   13   14 ar
    18   15   16 1 
    19   17   11 1 
    20   18   11 1 
@<TRIPOS>SUBSTRUCTURE
1 MOL         1
@<TRIPOS>MOLECULE
query molecule
   18    20     1     0     0
SMALL
NO_CHARGE

@<TRIPOS>ATOM
      1 C4         76.5650   41.8754   10.5456 C.ar      1 MOL     0.0725
      2 C5         77.0838   43.1659   10.6773 C.ar      1 MOL     0.0009
      3 C6         77.7872   43.7409    9.6184 C.ar      1 MOL     0.0187
      4 C7         78.6884   43.6009    7.3513 C.2       1 MOL    -0.0112
      5 C8         80.0352   43.4392    7.2109 C.2       1 MOL     0.0163
      6 C10        78.1280   44.3040    6.3502 C.2       1 MOL     0.0538
      7 N12        75.8685   41.3116   11.5457 N.ar      1 MOL    -0.2334
      8 C13        75.6497   41.9652   12.7066 C.ar      1 MOL     0.1153
      9 C15        76.8811   43.8683   11.8655 C.ar      1 MOL     0.0138
     10 C14        76.1546   43.2585   12.8956 C.ar      1 MOL     0.0445
     11 N16        74.9683   41.3649   13.6823 N.pl3     1 MOL    -0.3432
     12 C3         76.7536   41.1732    9.3561 C.ar      1 MOL     0.0295
     13 C2         77.4640   41.7464    8.2984 C.ar      1 MOL     0.0108
     14 C1         77.9991   43.0291    8.4262 C.ar      1 MOL    -0.0171
     15 C11        80.6385   43.9952    6.1485 C.2       1 MOL     0.0459
     16 S9         79.4011   44.7326    5.2968 S.3       1 MOL    -0.1054
     17 H161       74.7429   40.3831   13.6107 H         1 MOL     0.1442
     18 H162       74.6774   41.8920   14.4932 H         1 MOL     0.1442
@<TRIPOS>BOND
     1    2    1 ar
     2    1    7 ar
     3    1   12 ar
     4    3    2 ar
     5    2    9 ar
     6   14    3 ar
     7    4    5 1 
     8    4    6 2 
     9    4   14 1 
    10    5   15 2 
    11    6   16 1 
    12    7    8 ar
    13    8   10 ar
    14    8   11 1 
    15    9   10 ar
    16   12   13 ar
    17   13   14 ar
    18   15   16 1 
    19   17   11 1 
    20   18   11 1 
@<TRIPOS>SUBSTRUCTURE
1 MOL         1
@<TRIPOS>MOLECULE
query molecule
   18    20     1     0     0
SMALL
NO_CHARGE

@<TRIPOS>ATOM
      1 C4         71.8496   43.7491    5.7184 C.ar      1 MOL     0.0725
      2 C5         71.2699   44.2809    6.8730 C.ar      1 MOL     0.0009
      3 C6         71.5997   45.5736    7.2813 C.ar      1 MOL     0.0187
      4 C7         72.8521   47.6449    6.9460 C.2       1 MOL    -0.0112
      5 C8         73.9477   47.8968    7.7179 C.2       1 MOL     0.0163
      6 C10        72.1861   48.7572    6.5856 C.2       1 MOL     0.0538
      7 N12        71.5308   42.5143    5.2979 N.ar      1 MOL    -0.2334
      8 C13        70.6482   41.7472    5.9727 C.ar      1 MOL     0.1153
      9 C15        70.3576   43.5136    7.5978 C.ar      1 MOL     0.0138
     10 C14        70.0433   42.2275    7.1417 C.ar      1 MOL     0.0445
     11 N16        70.3708   40.5200    5.5328 N.pl3     1 MOL    -0.3432
     12 C3         72.7525   44.5156    4.9830 C.ar      1 MOL     0.0295
     13 C2         73.0881   45.8074    5.3957 C.ar      1 MOL     0.0108
     14 C1         72.5257   46.3415    6.5561 C.ar      1 MOL    -0.0171
     15 C11        74.2211   49.1698    8.0441 C.2       1 MOL     0.0459
     16 S9         73.0197   50.0651    7.2988 S.3       1 MOL    -0.1054
     17 H161       70.9196   40.1143    4.7882 H         1 MOL     0.1442
     18 H162       69.6119   39.9957    5.9441 H         1 MOL     0.1442
@<TRIPOS>BOND
     1    2    1 ar
     2    1    7 ar
     3    1   12 ar
     4    3    2 ar
     5    2    9 ar
     6   14    3 ar
     7    4    5 1 
     8    4    6 2 
     9    4   14 1 
    10    5   15 2 
    11    6   16 1 
    12    7    8 ar
    13    8   10 ar
    14    8   11 1 
    15    9   10 ar
    16   12   13 ar
    17   13   14 ar
    18   15   16 1 
    19   17   11 1 
    20   18   11 1 
@<TRIPOS>SUBSTRUCTURE
1 MOL         1
@<TRIPOS>MOLECULE
query molecule
   18    20     1     0     0
SMALL
NO_CHARGE

@<TRIPOS>ATOM
      1 C4         64.9447   51.5362   10.0539 C.ar      1 MOL     0.0725
      2 C5         63.7488   50.8155   10.1023 C.ar      1 MOL     0.0009
      3 C6         63.7459   49.4564    9.7871 C.ar      1 MOL     0.0187
      4 C7         64.9425   47.4403    9.0980 C.2       1 MOL    -0.0112
      5 C8         64.2085   46.5500    9.8248 C.2       1 MOL     0.0163
      6 C10        65.6090   46.8737    8.0757 C.2       1 MOL     0.0538
      7 N12        64.9722   52.8404   10.3723 N.ar      1 MOL    -0.2334
      8 C13        63.8530   53.4976   10.7440 C.ar      1 MOL     0.1153
      9 C15        62.5721   51.4645   10.4772 C.ar      1 MOL     0.0138
     10 C14        62.6248   52.8257   10.8014 C.ar      1 MOL     0.0445
     11 N16        63.9180   54.7966   11.0357 N.pl3     1 MOL    -0.3432
     12 C3         66.1261   50.8903    9.6921 C.ar      1 MOL     0.0295
     13 C2         66.1219   49.5310    9.3697 C.ar      1 MOL     0.0108
     14 C1         64.9295   48.8063    9.4004 C.ar      1 MOL    -0.0171
     15 C11        64.2457   45.2546    9.4752 C.2       1 MOL     0.0459
     16 S9         65.2548   45.2051    8.1410 S.3       1 MOL    -0.1054
     17 H161       64.4970   55.1142   11.7998 H         1 MOL     0.1442
     18 H162       63.3882   55.4632   10.4926 H         1 MOL     0.1442
@<TRIPOS>BOND
     1    2    1 ar
     2    1    7 ar
     3    1   12 ar
     4    3    2 ar
     5    2    9 ar
     6   14    3 ar
     7    4    5 1 
     8    4    6 2 
     9    4   14 1 
    10    5   15 2 
    11    6   16 1 
    12    7    8 ar
    13    8   10 ar
    14    8   11 1 
    15    9   10 ar
    16   12   13 ar
    17   13   14 ar
    18   15   16 1 
    19   17   11 1 
    20   18   11 1 
@<TRIPOS>SUBSTRUCTURE
1 MOL         1
@<TRIPOS>MOLECULE
query molecule
   18    20     1     0     0
SMALL
NO_CHARGE

@<TRIPOS>ATOM
      1 C4         71.8440   49.7515   12.9787 C.ar      1 MOL     0.0725
      2 C5         72.1860   48.3981   13.0367 C.ar      1 MOL     0.0009
      3 C6         73.0614   47.9467   14.0249 C.ar      1 MOL     0.0187
      4 C7         74.4872   48.3984   15.9574 C.2       1 MOL    -0.0112
      5 C8         74.8901   47.0970   16.0183 C.2       1 MOL     0.0163
      6 C10        75.0380   49.1728   16.9100 C.2       1 MOL     0.0538
      7 N12        70.9882   50.2027   12.0475 N.ar      1 MOL    -0.2334
      8 C13        70.4349   49.3716   11.1387 C.ar      1 MOL     0.1153
      9 C15        71.6368   47.5120   12.1097 C.ar      1 MOL     0.0138
     10 C14        70.7494   48.0062   11.1458 C.ar      1 MOL     0.0445
     11 N16        69.6031   49.8606   10.2192 N.pl3     1 MOL    -0.3432
     12 C3         72.3799   50.6398   13.9101 C.ar      1 MOL     0.0295
     13 C2         73.2619   50.1889   14.8952 C.ar      1 MOL     0.0108
     14 C1         73.6213   48.8415   14.9517 C.ar      1 MOL    -0.0171
     15 C11        75.7373   46.7351   16.9945 C.2       1 MOL     0.0459
     16 S9         76.0319   48.1464   17.8442 S.3       1 MOL    -0.1054
     17 H161       68.7439   50.3092   10.5030 H         1 MOL     0.1442
     18 H162       69.8321   49.7826    9.2386 H         1 MOL     0.1442
@<TRIPOS>BOND
     1    2    1 ar
     2    1    7 ar
     3    1   12 ar
     4    3    2 ar
     5    2    9 ar
     6   14    3 ar
     7    4    5 1 
     8    4    6 2 
     9    4   14 1 
    10    5   15 2 
    11    6   16 1 
    12    7    8 ar
    13    8   10 ar
    14    8   11 1 
    15    9   10 ar
    16   12   13 ar
    17   13   14 ar
    18   15   16 1 
    19   17   11 1 
    20   18   11 1 
@<TRIPOS>SUBSTRUCTURE
1 MOL         1
@<TRIPOS>MOLECULE
query molecule
   18    20     1     0     0
SMALL
NO_CHARGE

@<TRIPOS>ATOM
      1 C4         62.3529   46.4044   10.4413 C.ar      1 MOL     0.0725
      2 C5         63.3940   47.2122   10.9054 C.ar      1 MOL     0.0009
      3 C6         64.4988   47.4553   10.0888 C.ar      1 MOL     0.0187
      4 C7         65.6825   47.1293    7.9760 C.2       1 MOL    -0.0112
      5 C8         65.9675   48.3913    7.5448 C.2       1 MOL     0.0163
      6 C10        66.5705   46.2091    7.5573 C.2       1 MOL     0.0538
      7 N12        61.2720   46.1739   11.2041 N.ar      1 MOL    -0.2334
      8 C13        61.1557   46.7075   12.4388 C.ar      1 MOL     0.1153
      9 C15        63.3091   47.7754   12.1789 C.ar      1 MOL     0.0138
     10 C14        62.1739   47.5182   12.9574 C.ar      1 MOL     0.0445
     11 N16        60.0751   46.4411   13.1723 N.pl3     1 MOL    -0.3432
     12 C3         62.4262   45.8487    9.1647 C.ar      1 MOL     0.0295
     13 C2         63.5358   46.0865    8.3497 C.ar      1 MOL     0.0108
     14 C1         64.5877   46.8797    8.8105 C.ar      1 MOL    -0.0171
     15 C11        67.0425   48.5718    6.7616 C.2       1 MOL     0.0459
     16 S9         67.7123   47.0463    6.6038 S.3       1 MOL    -0.1054
     17 H161       59.3595   45.8258   12.8125 H         1 MOL     0.1442
     18 H162       59.9718   46.8546   14.0880 H         1 MOL     0.1442
@<TRIPOS>BOND
     1    2    1 ar
     2    1    7 ar
     3    1   12 ar
     4    3    2 ar
     5    2    9 ar
     6   14    3 ar
     7    4    5 1 
     8    4    6 2 
     9    4   14 1 
    10    5   15 2 
    11    6   16 1 
    12    7    8 ar
    13    8   10 ar
    14    8   11 1 
    15    9   10 ar
    16   12   13 ar
    17   13   14 ar
    18   15   16 1 
    19   17   11 1 
    20   18   11 1 
@<TRIPOS>SUBSTRUCTURE
1 MOL         1
@<TRIPOS>MOLECULE
query molecule
   18    20     1     0     0
SMALL
NO_CHARGE

@<TRIPOS>ATOM
      1 C4         78.8748   42.8657    5.6864 C.ar      1 MOL     0.0725
      2 C5         78.7596   42.2213    6.9206 C.ar      1 MOL     0.0009
      3 C6         78.9304   42.9474    8.0997 C.ar      1 MOL     0.0187
      4 C7         79.3957   45.0598    9.2367 C.2       1 MOL    -0.0112
      5 C8         78.3338   45.6791    9.8271 C.2       1 MOL     0.0163
      6 C10        80.5459   45.2061    9.9193 C.2       1 MOL     0.0538
      7 N12        78.6949   42.1890    4.5406 N.ar      1 MOL    -0.2334
      8 C13        78.4022   40.8710    4.5404 C.ar      1 MOL     0.1153
      9 C15        78.4632   40.8585    6.9574 C.ar      1 MOL     0.0138
     10 C14        78.2832   40.1732    5.7496 C.ar      1 MOL     0.0445
     11 N16        78.2479   40.2306    3.3817 N.pl3     1 MOL    -0.3432
     12 C3         79.1586   44.2300    5.6434 C.ar      1 MOL     0.0295
     13 C2         79.3365   44.9555    6.8240 C.ar      1 MOL     0.0108
     14 C1         79.2384   44.3173    8.0613 C.ar      1 MOL    -0.0171
     15 C11        78.5427   46.3610   10.9642 C.2       1 MOL     0.0459
     16 S9         80.1744   46.1662   11.2809 S.3       1 MOL    -0.1054
     17 H161       78.3716   40.7262    2.5104 H         1 MOL     0.1442
     18 H162       78.0074   39.2497    3.3750 H         1 MOL     0.1442
@<TRIPOS>BOND
     1    2    1 ar
     2    1    7 ar
     3    1   12 ar
     4    3    2 ar
     5    2    9 ar
     6   14    3 ar
     7    4    5 1 
     8    4    6 2 
     9    4   14 1 
    10    5   15 2 
    11    6   16 1 
    12    7    8 ar
    13    8   10 ar
    14    8   11 1 
    15    9   10 ar
    16   12   13 ar
    17   13   14 ar
    18   15   16 1 
    19   17   11 1 
    20   18   11 1 
@<TRIPOS>SUBSTRUCTURE
1 MOL         1
@<TRIPOS>MOLECULE
query molecule
   18    20     1     0     0
SMALL
NO_CHARGE

@<TRIPOS>ATOM
      1 C4         74.8379   46.6216    8.0965 C.ar      1 MOL     0.0725
      2 C5         75.4938   45.4003    8.2704 C.ar      1 MOL     0.0009
      3 C6         76.6345   45.3346    9.0710 C.ar      1 MOL     0.0187
      4 C7         78.2788   46.4318   10.5077 C.2       1 MOL    -0.0112
      5 C8         78.1818   46.5908   11.8586 C.2       1 MOL     0.0163
      6 C10        79.5323   46.1793   10.0887 C.2       1 MOL     0.0538
      7 N12        73.7275   46.7022    7.3457 N.ar      1 MOL    -0.2334
      8 C13        73.2115   45.6150    6.7337 C.ar      1 MOL     0.1153
      9 C15        74.9910   44.2575    7.6480 C.ar      1 MOL     0.0138
     10 C14        73.8337   44.3668    6.8672 C.ar      1 MOL     0.0445
     11 N16        72.1174   45.7391    5.9826 N.pl3     1 MOL    -0.3432
     12 C3         75.3284   47.7648    8.7259 C.ar      1 MOL     0.0295
     13 C2         76.4747   47.7003    9.5220 C.ar      1 MOL     0.0108
     14 C1         77.1455   46.4878    9.6892 C.ar      1 MOL    -0.0171
     15 C11        79.3015   46.5074   12.5942 C.2       1 MOL     0.0459
     16 S9         80.5137   46.1891   11.4853 S.3       1 MOL    -0.1054
     17 H161       71.3446   45.1008    6.1067 H         1 MOL     0.1442
     18 H162       72.0612   46.4714    5.2894 H         1 MOL     0.1442
@<TRIPOS>BOND
     1    2    1 ar
     2    1    7 ar
     3    1   12 ar
     4    3    2 ar
     5    2    9 ar
     6   14    3 ar
     7    4    5 1 
     8    4    6 2 
     9    4   14 1 
    10    5   15 2 
    11    6   16 1 
    12    7    8 ar
    13    8   10 ar
    14    8   11 1 
    15    9   10 ar
    16   12   13 ar
    17   13   14 ar
    18   15   16 1 
    19   17   11 1 
    20   18   11 1 
@<TRIPOS>SUBSTRUCTURE
1 MOL         1
@<TRIPOS>MOLECULE
query molecule
   18    20     1     0     0
SMALL
NO_CHARGE

@<TRIPOS>ATOM
      1 C4         73.7302   43.6991    7.6573 C.ar      1 MOL     0.0725
      2 C5         73.9965   43.6517    6.2866 C.ar      1 MOL     0.0009
      3 C6         75.3173   43.6222    5.8383 C.ar      1 MOL     0.0187
      4 C7         77.7145   43.6151    6.3127 C.2       1 MOL    -0.0112
      5 C8         78.6942   44.3076    6.9611 C.2       1 MOL     0.0163
      6 C10        78.1724   42.8818    5.2817 C.2       1 MOL     0.0538
      7 N12        72.4659   43.7085    8.1098 N.ar      1 MOL    -0.2334
      8 C13        71.4152   43.6765    7.2627 C.ar      1 MOL     0.1153
      9 C15        72.9343   43.6231    5.3826 C.ar      1 MOL     0.0138
     10 C14        71.6246   43.6370    5.8779 C.ar      1 MOL     0.0445
     11 N16        70.1749   43.7047    7.7501 N.pl3     1 MOL    -0.3432
     12 C3         74.7873   43.7153    8.5661 C.ar      1 MOL     0.0295
     13 C2         76.1100   43.6929    8.1169 C.ar      1 MOL     0.0108
     14 C1         76.3860   43.6609    6.7491 C.ar      1 MOL    -0.0171
     15 C11        79.9537   44.2094    6.5077 C.2       1 MOL     0.0459
     16 S9         79.8548   43.1612    5.2069 S.3       1 MOL    -0.1054
     17 H161       69.4894   43.0379    7.4254 H         1 MOL     0.1442
     18 H162       69.9207   44.3929    8.4442 H         1 MOL     0.1442
@<TRIPOS>BOND
     1    2    1 ar
     2    1    7 ar
     3    1   12 ar
     4    3    2 ar
     5    2    9 ar
     6   14    3 ar
     7    4    5 1 
     8    4    6 2 
     9    4   14 1 
    10    5   15 2 
    11    6   16 1 
    12    7    8 ar
    13    8   10 ar
    14    8   11 1 
    15    9   10 ar
    16   12   13 ar
    17   13   14 ar
    18   15   16 1 
    19   17   11 1 
    20   18   11 1 
@<TRIPOS>SUBSTRUCTURE
1 MOL         1
@<TRIPOS>MOLECULE
query molecule
   18    20     1     0     0
SMALL
NO_CHARGE

@<TRIPOS>ATOM
      1 C4         73.1726   47.1490    3.0985 C.ar      1 MOL     0.0725
      2 C5         73.8937   46.4363    4.0599 C.ar      1 MOL     0.0009
      3 C6         74.0107   46.9432    5.3544 C.ar      1 MOL     0.0187
      4 C7         73.5251   48.6852    6.9979 C.2       1 MOL    -0.0112
      5 C8         72.6877   48.2602    7.9868 C.2       1 MOL     0.0163
      6 C10        74.4400   49.5771    7.4200 C.2       1 MOL     0.0538
      7 N12        73.0318   46.6689    1.8524 N.ar      1 MOL    -0.2334
      8 C13        73.5812   45.4914    1.4858 C.ar      1 MOL     0.1153
      9 C15        74.4792   45.2183    3.7139 C.ar      1 MOL     0.0138
     10 C14        74.3218   44.7396    2.4074 C.ar      1 MOL     0.0445
     11 N16        73.4338   45.0570    0.2343 N.pl3     1 MOL    -0.3432
     12 C3         72.5746   48.3608    3.4416 C.ar      1 MOL     0.0295
     13 C2         72.6977   48.8717    4.7360 C.ar      1 MOL     0.0108
     14 C1         73.4289   48.1745    5.6990 C.ar      1 MOL    -0.0171
     15 C11        72.8408   48.7722    9.2181 C.2       1 MOL     0.0459
     16 S9         74.1344   49.8250    9.0810 S.3       1 MOL    -0.1054
     17 H161       72.7370   45.4739   -0.3662 H         1 MOL     0.1442
     18 H162       74.0189   44.3108   -0.1134 H         1 MOL     0.1442
@<TRIPOS>BOND
     1    2    1 ar
     2    1    7 ar
     3    1   12 ar
     4    3    2 ar
     5    2    9 ar
     6   14    3 ar
     7    4    5 1 
     8    4    6 2 
     9    4   14 1 
    10    5   15 2 
    11    6   16 1 
    12    7    8 ar
    13    8   10 ar
    14    8   11 1 
    15    9   10 ar
    16   12   13 ar
    17   13   14 ar
    18   15   16 1 
    19   17   11 1 
    20   18   11 1 
@<TRIPOS>SUBSTRUCTURE
1 MOL         1
@<TRIPOS>MOLECULE
query molecule
   18    20     1     0     0
SMALL
NO_CHARGE

@<TRIPOS>ATOM
      1 C4         65.0388   47.5619    9.2996 C.ar      1 MOL     0.0725
      2 C5         64.7407   46.2182    9.5398 C.ar      1 MOL     0.0009
      3 C6         63.9083   45.8732   10.6049 C.ar      1 MOL     0.0187
      4 C7         62.5324   46.5285   12.5151 C.2       1 MOL    -0.0112
      5 C8         61.3360   47.1603   12.6854 C.2       1 MOL     0.0163
      6 C10        62.7592   45.5615   13.4229 C.2       1 MOL     0.0538
      7 N12        65.8221   47.9162    8.2680 N.ar      1 MOL    -0.2334
      8 C13        66.3486   46.9934    7.4350 C.ar      1 MOL     0.1153
      9 C15        65.2723   45.2377    8.7017 C.ar      1 MOL     0.0138
     10 C14        66.0892   45.6311    7.6346 C.ar      1 MOL     0.0445
     11 N16        67.1357   47.3837    6.4326 N.pl3     1 MOL    -0.3432
     12 C3         64.5005   48.5472   10.1261 C.ar      1 MOL     0.0295
     13 C2         63.6726   48.2011   11.1969 C.ar      1 MOL     0.0108
     14 C1         63.3815   46.8605   11.4539 C.ar      1 MOL    -0.0171
     15 C11        60.5551   46.7853   13.7107 C.2       1 MOL     0.0459
     16 S9         61.4037   45.5531   14.4604 S.3       1 MOL    -0.1054
     17 H161       67.1552   48.3544    6.1543 H         1 MOL     0.1442
     18 H162       67.7125   46.7087    5.9513 H         1 MOL     0.1442
@<TRIPOS>BOND
     1    2    1 ar
     2    1    7 ar
     3    1   12 ar
     4    3    2 ar
     5    2    9 ar
     6   14    3 ar
     7    4    5 1 
     8    4    6 2 
     9    4   14 1 
    10    5   15 2 
    11    6   16 1 
    12    7    8 ar
    13    8   10 ar
    14    8   11 1 
    15    9   10 ar
    16   12   13 ar
    17   13   14 ar
    18   15   16 1 
    19   17   11 1 
    20   18   11 1 
@<TRIPOS>SUBSTRUCTURE
1 MOL         1
@<TRIPOS>MOLECULE
query molecule
   18    20     1     0     0
SMALL
NO_CHARGE

@<TRIPOS>ATOM
      1 C4         73.3781   41.9918    7.2342 C.ar      1 MOL     0.0725
      2 C5         72.7107   43.1996    7.0158 C.ar      1 MOL     0.0009
      3 C6         73.2761   44.3940    7.4630 C.ar      1 MOL     0.0187
      4 C7         75.0862   45.5884    8.5893 C.2       1 MOL    -0.0112
      5 C8         75.3336   46.6128    7.7238 C.2       1 MOL     0.0163
      6 C10        75.4152   45.8741    9.8624 C.2       1 MOL     0.0538
      7 N12        72.8603   40.8334    6.7946 N.ar      1 MOL    -0.2334
      8 C13        71.6834   40.7946    6.1343 C.ar      1 MOL     0.1153
      9 C15        71.4895   43.1956    6.3413 C.ar      1 MOL     0.0138
     10 C14        70.9676   41.9751    5.8953 C.ar      1 MOL     0.0445
     11 N16        71.1938   39.6230    5.7289 N.pl3     1 MOL    -0.3432
     12 C3         74.6049   41.9906    7.8967 C.ar      1 MOL     0.0295
     13 C2         75.1676   43.1860    8.3507 C.ar      1 MOL     0.0108
     14 C1         74.5010   44.3957    8.1506 C.ar      1 MOL    -0.0171
     15 C11        75.8789   47.7403    8.2067 C.2       1 MOL     0.0459
     16 S9         76.0518   47.4579    9.8471 S.3       1 MOL    -0.1054
     17 H161       70.1955   39.4711    5.7129 H         1 MOL     0.1442
     18 H162       71.8213   38.8871    5.4378 H         1 MOL     0.1442
@<TRIPOS>BOND
     1    2    1 ar
     2    1    7 ar
     3    1   12 ar
     4    3    2 ar
     5    2    9 ar
     6   14    3 ar
     7    4    5 1 
     8    4    6 2 
     9    4   14 1 
    10    5   15 2 
    11    6   16 1 
    12    7    8 ar
    13    8   10 ar
    14    8   11 1 
    15    9   10 ar
    16   12   13 ar
    17   13   14 ar
    18   15   16 1 
    19   17   11 1 
    20   18   11 1 
@<TRIPOS>SUBSTRUCTURE
1 MOL         1
@<TRIPOS>MOLECULE
query molecule
   18    20     1     0     0
SMALL
NO_CHARGE

@<TRIPOS>ATOM
      1 C4         77.1246   43.5668    9.0416 C.ar      1 MOL     0.0725
      2 C5         77.7968   44.5132    8.2642 C.ar      1 MOL     0.0009
      3 C6         77.1194   45.6465    7.8135 C.ar      1 MOL     0.0187
      4 C7         75.0750   46.9788    7.6825 C.2       1 MOL    -0.0112
      5 C8         75.4188   48.2203    8.1297 C.2       1 MOL     0.0163
      6 C10        74.0750   46.9938    6.7823 C.2       1 MOL     0.0538
      7 N12        77.7637   42.4789    9.5014 N.ar      1 MOL    -0.2334
      8 C13        79.0676   42.2608    9.2276 C.ar      1 MOL     0.1153
      9 C15        79.1435   44.3167    7.9576 C.ar      1 MOL     0.0138
     10 C14        79.7879   43.1732    8.4454 C.ar      1 MOL     0.0445
     11 N16        79.6621   41.1602    9.6878 N.pl3     1 MOL    -0.3432
     12 C3         75.7820   43.7637    9.3617 C.ar      1 MOL     0.0295
     13 C2         75.1019   44.8951    8.9045 C.ar      1 MOL     0.0108
     14 C1         75.7608   45.8384    8.1146 C.ar      1 MOL    -0.0171
     15 C11        74.7370   49.2789    7.6645 C.2       1 MOL     0.0459
     16 S9         73.6276   48.6301    6.5928 S.3       1 MOL    -0.1054
     17 H161       80.3872   40.7133    9.1450 H         1 MOL     0.1442
     18 H162       79.3875   40.7731   10.5793 H         1 MOL     0.1442
@<TRIPOS>BOND
     1    2    1 ar
     2    1    7 ar
     3    1   12 ar
     4    3    2 ar
     5    2    9 ar
     6   14    3 ar
     7    4    5 1 
     8    4    6 2 
     9    4   14 1 
    10    5   15 2 
    11    6   16 1 
    12    7    8 ar
    13    8   10 ar
    14    8   11 1 
    15    9   10 ar
    16   12   13 ar
    17   13   14 ar
    18   15   16 1 
    19   17   11 1 
    20   18   11 1 
@<TRIPOS>SUBSTRUCTURE
1 MOL         1
@<TRIPOS>MOLECULE
query molecule
   18    20     1     0     0
SMALL
NO_CHARGE

@<TRIPOS>ATOM
      1 C4         63.1542   47.5299   17.3917 C.ar      1 MOL     0.0725
      2 C5         64.2903   48.2446   17.0038 C.ar      1 MOL     0.0009
      3 C6         64.4288   49.5814   17.3782 C.ar      1 MOL     0.0187
      4 C7         63.5632   51.5609   18.5200 C.2       1 MOL    -0.0112
      5 C8         63.3153   51.9443   19.8050 C.2       1 MOL     0.0163
      6 C10        63.9792   52.5699   17.7329 C.2       1 MOL     0.0538
      7 N12        63.0109   46.2370   17.0581 N.ar      1 MOL    -0.2334
      8 C13        63.9506   45.5879   16.3382 C.ar      1 MOL     0.1153
      9 C15        65.2789   47.6063   16.2545 C.ar      1 MOL     0.0138
     10 C14        65.1058   46.2587   15.9156 C.ar      1 MOL     0.0445
     11 N16        63.7637   44.3091   16.0121 N.pl3     1 MOL    -0.3432
     12 C3         62.1686   48.1587   18.1512 C.ar      1 MOL     0.0295
     13 C2         62.3041   49.4993   18.5202 C.ar      1 MOL     0.0108
     14 C1         63.4282   50.2257   18.1244 C.ar      1 MOL    -0.0171
     15 C11        63.4807   53.2361   20.1300 C.2       1 MOL     0.0459
     16 S9         63.9978   53.9656   18.7155 S.3       1 MOL    -0.1054
     17 H161       64.0597   43.5784   16.6434 H         1 MOL     0.1442
     18 H162       63.3261   44.0708   15.1336 H         1 MOL     0.1442
@<TRIPOS>BOND
     1    2    1 ar
     2    1    7 ar
     3    1   12 ar
     4    3    2 ar
     5    2    9 ar
     6   14    3 ar
     7    4    5 1 
     8    4    6 2 
     9    4   14 1 
    10    5   15 2 
    11    6   16 1 
    12    7    8 ar
    13    8   10 ar
    14    8   11 1 
    15    9   10 ar
    16   12   13 ar
    17   13   14 ar
    18   15   16 1 
    19   17   11 1 
    20   18   11 1 
@<TRIPOS>SUBSTRUCTURE
1 MOL         1
@<TRIPOS>MOLECULE
query molecule
   18    20     1     0     0
SMALL
NO_CHARGE

@<TRIPOS>ATOM
      1 C4         72.4029   44.4944    7.9835 C.ar      1 MOL     0.0725
      2 C5         73.2956   45.5663    7.9060 C.ar      1 MOL     0.0009
      3 C6         72.8077   46.8639    7.7487 C.ar      1 MOL     0.0187
      4 C7         70.9253   48.4030    7.5048 C.2       1 MOL    -0.0112
      5 C8         71.5278   49.3066    6.6799 C.2       1 MOL     0.0163
      6 C10        69.8156   48.8793    8.0982 C.2       1 MOL     0.0538
      7 N12        72.8513   43.2402    8.1542 N.ar      1 MOL    -0.2334
      8 C13        74.1709   42.9721    8.2524 C.ar      1 MOL     0.1153
      9 C15        74.6665   45.3248    7.9984 C.ar      1 MOL     0.0138
     10 C14        75.1106   44.0083    8.1728 C.ar      1 MOL     0.0445
     11 N16        74.5775   41.7118    8.4041 N.pl3     1 MOL    -0.3432
     12 C3         71.0312   44.7308    7.9042 C.ar      1 MOL     0.0295
     13 C2         70.5430   46.0294    7.7397 C.ar      1 MOL     0.0108
     14 C1         71.4276   47.1049    7.6460 C.ar      1 MOL    -0.0171
     15 C11        70.9888   50.5309    6.5704 C.2       1 MOL     0.0459
     16 S9         69.6401   50.4898    7.5603 S.3       1 MOL    -0.1054
     17 H161       74.6534   41.3135    9.3291 H         1 MOL     0.1442
     18 H162       74.8096   41.1552    7.5939 H         1 MOL     0.1442
@<TRIPOS>BOND
     1    2    1 ar
     2    1    7 ar
     3    1   12 ar
     4    3    2 ar
     5    2    9 ar
     6   14    3 ar
     7    4    5 1 
     8    4    6 2 
     9    4   14 1 
    10    5   15 2 
    11    6   16 1 
    12    7    8 ar
    13    8   10 ar
    14    8   11 1 
    15    9   10 ar
    16   12   13 ar
    17   13   14 ar
    18   15   16 1 
    19   17   11 1 
    20   18   11 1 
@<TRIPOS>SUBSTRUCTURE
1 MOL         1
@<TRIPOS>MOLECULE
query molecule
   18    20     1     0     0
SMALL
NO_CHARGE

@<TRIPOS>ATOM
      1 C4         75.2410   45.6498    7.8424 C.ar      1 MOL     0.0725
      2 C5         74.5318   45.8864    9.0226 C.ar      1 MOL     0.0009
      3 C6         75.0680   45.4823   10.2457 C.ar      1 MOL     0.0187
      4 C7         76.8611   44.4248   11.5254 C.2       1 MOL    -0.0112
      5 C8         77.8137   45.1795   12.1441 C.2       1 MOL     0.0163
      6 C10        76.5072   43.3324   12.2268 C.2       1 MOL     0.0538
      7 N12        74.7515   46.0481    6.6572 N.ar      1 MOL    -0.2334
      8 C13        73.5637   46.6832    6.5641 C.ar      1 MOL     0.1153
      9 C15        73.2985   46.5357    8.9627 C.ar      1 MOL     0.0138
     10 C14        72.8067   46.9387    7.7151 C.ar      1 MOL     0.0445
     11 N16        73.1035   47.0475    5.3675 N.pl3     1 MOL    -0.3432
     12 C3         76.4798   45.0125    7.8970 C.ar      1 MOL     0.0295
     13 C2         77.0134   44.6017    9.1211 C.ar      1 MOL     0.0108
     14 C1         76.3053   44.8201   10.3038 C.ar      1 MOL    -0.0171
     15 C11        78.2956   44.7592   13.3242 C.2       1 MOL     0.0459
     16 S9         77.4598   43.3449   13.6432 S.3       1 MOL    -0.1054
     17 H161       72.1210   47.2457    5.2431 H         1 MOL     0.1442
     18 H162       73.7373   47.1255    4.5850 H         1 MOL     0.1442
@<TRIPOS>BOND
     1    2    1 ar
     2    1    7 ar
     3    1   12 ar
     4    3    2 ar
     5    2    9 ar
     6   14    3 ar
     7    4    5 1 
     8    4    6 2 
     9    4   14 1 
    10    5   15 2 
    11    6   16 1 
    12    7    8 ar
    13    8   10 ar
    14    8   11 1 
    15    9   10 ar
    16   12   13 ar
    17   13   14 ar
    18   15   16 1 
    19   17   11 1 
    20   18   11 1 
@<TRIPOS>SUBSTRUCTURE
1 MOL         1
@<TRIPOS>MOLECULE
query molecule
   18    20     1     0     0
SMALL
NO_CHARGE

@<TRIPOS>ATOM
      1 C4         74.1064   46.1005    8.1543 C.ar      1 MOL     0.0725
      2 C5         73.5108   44.8369    8.1358 C.ar      1 MOL     0.0009
      3 C6         72.1209   44.7270    8.0845 C.ar      1 MOL     0.0187
      4 C7         69.9157   45.7767    8.0041 C.2       1 MOL    -0.0112
      5 C8         69.2951   44.5638    7.9442 C.2       1 MOL     0.0163
      6 C10        69.0587   46.8136    8.0363 C.2       1 MOL     0.0538
      7 N12        75.4429   46.2278    8.1840 N.ar      1 MOL    -0.2334
      8 C13        76.2523   45.1474    8.2009 C.ar      1 MOL     0.1153
      9 C15        74.3172   43.6986    8.1579 C.ar      1 MOL     0.0138
     10 C14        75.7081   43.8563    8.1922 C.ar      1 MOL     0.0445
     11 N16        77.5738   45.3150    8.2479 N.pl3     1 MOL    -0.3432
     12 C3         73.3063   47.2417    8.1199 C.ar      1 MOL     0.0295
     13 C2         71.9143   47.1316    8.0755 C.ar      1 MOL     0.0108
     14 C1         71.3097   45.8737    8.0722 C.ar      1 MOL    -0.0171
     15 C11        67.9539   44.5334    7.9001 C.2       1 MOL     0.0459
     16 S9         67.4918   46.1406    7.9615 S.3       1 MOL    -0.1054
     17 H161       78.1683   44.5579    8.5535 H         1 MOL     0.1442
     18 H162       77.9805   46.1991    7.9779 H         1 MOL     0.1442
@<TRIPOS>BOND
     1    2    1 ar
     2    1    7 ar
     3    1   12 ar
     4    3    2 ar
     5    2    9 ar
     6   14    3 ar
     7    4    5 1 
     8    4    6 2 
     9    4   14 1 
    10    5   15 2 
    11    6   16 1 
    12    7    8 ar
    13    8   10 ar
    14    8   11 1 
    15    9   10 ar
    16   12   13 ar
    17   13   14 ar
    18   15   16 1 
    19   17   11 1 
    20   18   11 1 
@<TRIPOS>SUBSTRUCTURE
1 MOL         1
@<TRIPOS>MOLECULE
query molecule
   18    20     1     0     0
SMALL
NO_CHARGE

@<TRIPOS>ATOM
      1 C4         72.3203   49.5995   12.4515 C.ar      1 MOL     0.0725
      2 C5         71.7644   50.4092   11.4578 C.ar      1 MOL     0.0009
      3 C6         71.9996   50.1166   10.1141 C.ar      1 MOL     0.0187
      4 C7         73.0370   48.7144    8.4027 C.2       1 MOL    -0.0112
      5 C8         74.0544   49.2973    7.7064 C.2       1 MOL     0.0163
      6 C10        72.3474   47.8102    7.6834 C.2       1 MOL     0.0538
      7 N12        72.0901   49.8526   13.7500 N.ar      1 MOL    -0.2334
      8 C13        71.3223   50.8929   14.1387 C.ar      1 MOL     0.1153
      9 C15        70.9702   51.4961   11.8240 C.ar      1 MOL     0.0138
     10 C14        70.7470   51.7423   13.1843 C.ar      1 MOL     0.0445
     11 N16        71.1316   51.1216   15.4379 N.pl3     1 MOL    -0.3432
     12 C3         73.1047   48.5046   12.0916 C.ar      1 MOL     0.0295
     13 C2         73.3458   48.2158   10.7461 C.ar      1 MOL     0.0108
     14 C1         72.8074   49.0278    9.7468 C.ar      1 MOL    -0.0171
     15 C11        74.2378   48.9422    6.4250 C.2       1 MOL     0.0459
     16 S9         73.0562   47.7943    6.1306 S.3       1 MOL    -0.1054
     17 H161       71.3148   50.3917   16.1114 H         1 MOL     0.1442
     18 H162       70.8038   52.0249   15.7488 H         1 MOL     0.1442
@<TRIPOS>BOND
     1    2    1 ar
     2    1    7 ar
     3    1   12 ar
     4    3    2 ar
     5    2    9 ar
     6   14    3 ar
     7    4    5 1 
     8    4    6 2 
     9    4   14 1 
    10    5   15 2 
    11    6   16 1 
    12    7    8 ar
    13    8   10 ar
    14    8   11 1 
    15    9   10 ar
    16   12   13 ar
    17   13   14 ar
    18   15   16 1 
    19   17   11 1 
    20   18   11 1 
@<TRIPOS>SUBSTRUCTURE
1 MOL         1
@<TRIPOS>MOLECULE
query molecule
   18    20     1     0     0
SMALL
NO_CHARGE

@<TRIPOS>ATOM
      1 C4         71.9928   49.9388    8.5421 C.ar      1 MOL     0.0725
      2 C5         71.4535   48.6511    8.5978 C.ar      1 MOL     0.0009
      3 C6         70.0708   48.4821    8.6743 C.ar      1 MOL     0.0187
      4 C7         67.8236   49.4366    8.7773 C.2       1 MOL    -0.0112
      5 C8         67.0862   50.0474    9.7483 C.2       1 MOL     0.0163
      6 C10        67.0784   48.7388    7.9008 C.2       1 MOL     0.0538
      7 N12        73.3197   50.1225    8.4486 N.ar      1 MOL    -0.2334
      8 C13        74.1737   49.0775    8.4093 C.ar      1 MOL     0.1153
      9 C15        72.3074   47.5483    8.5648 C.ar      1 MOL     0.0138
     10 C14        73.6877   47.7648    8.4706 C.ar      1 MOL     0.0445
     11 N16        75.4855   49.3013    8.3338 N.pl3     1 MOL    -0.3432
     12 C3         71.1439   51.0445    8.5621 C.ar      1 MOL     0.0295
     13 C2         69.7597   50.8753    8.6458 C.ar      1 MOL     0.0108
     14 C1         69.2126   49.5933    8.7173 C.ar      1 MOL    -0.0171
     15 C11        65.7549   49.8758    9.7431 C.2       1 MOL     0.0459
     16 S9         65.4586   48.9035    8.4137 S.3       1 MOL    -0.1054
     17 H161       75.8275   50.2029    8.0336 H         1 MOL     0.1442
     18 H162       76.1374   48.5692    8.5768 H         1 MOL     0.1442
@<TRIPOS>BOND
     1    2    1 ar
     2    1    7 ar
     3    1   12 ar
     4    3    2 ar
     5    2    9 ar
     6   14    3 ar
     7    4    5 1 
     8    4    6 2 
     9    4   14 1 
    10    5   15 2 
    11    6   16 1 
    12    7    8 ar
    13    8   10 ar
    14    8   11 1 
    15    9   10 ar
    16   12   13 ar
    17   13   14 ar
    18   15   16 1 
    19   17   11 1 
    20   18   11 1 
@<TRIPOS>SUBSTRUCTURE
1 MOL         1
@<TRIPOS>MOLECULE
query molecule
   18    20     1     0     0
SMALL
NO_CHARGE

@<TRIPOS>ATOM
      1 C4         68.7465   50.1148    8.4177 C.ar      1 MOL     0.0725
      2 C5         68.8582   49.0680    9.3362 C.ar      1 MOL     0.0009
      3 C6         69.5452   49.2679   10.5339 C.ar      1 MOL     0.0187
      4 C7         70.8228   50.7231   12.0244 C.2       1 MOL    -0.0112
      5 C8         70.3141   51.5530   12.9795 C.2       1 MOL     0.0163
      6 C10        71.9759   50.1332   12.3892 C.2       1 MOL     0.0538
      7 N12        68.0729   49.9487    7.2680 N.ar      1 MOL    -0.2334
      8 C13        67.4874   48.7719    6.9593 C.ar      1 MOL     0.1153
      9 C15        68.2698   47.8366    9.0470 C.ar      1 MOL     0.0138
     10 C14        67.5755   47.6860    7.8403 C.ar      1 MOL     0.0445
     11 N16        66.8424   48.6412    5.8002 N.pl3     1 MOL    -0.3432
     12 C3         69.3217   51.3515    8.7066 C.ar      1 MOL     0.0295
     13 C2         70.0156   51.5495    9.9029 C.ar      1 MOL     0.0108
     14 C1         70.1456   50.5052   10.8197 C.ar      1 MOL    -0.0171
     15 C11        70.9995   51.7075   14.1232 C.2       1 MOL     0.0459
     16 S9         72.3386   50.7188   13.9510 S.3       1 MOL    -0.1054
     17 H161       65.9794   48.1181    5.7587 H         1 MOL     0.1442
     18 H162       67.2166   49.0652    4.9634 H         1 MOL     0.1442
@<TRIPOS>BOND
     1    2    1 ar
     2    1    7 ar
     3    1   12 ar
     4    3    2 ar
     5    2    9 ar
     6   14    3 ar
     7    4    5 1 
     8    4    6 2 
     9    4   14 1 
    10    5   15 2 
    11    6   16 1 
    12    7    8 ar
    13    8   10 ar
    14    8   11 1 
    15    9   10 ar
    16   12   13 ar
    17   13   14 ar
    18   15   16 1 
    19   17   11 1 
    20   18   11 1 
@<TRIPOS>SUBSTRUCTURE
1 MOL         1
@<TRIPOS>MOLECULE
query molecule
   18    20     1     0     0
SMALL
NO_CHARGE

@<TRIPOS>ATOM
      1 C4         75.5100   40.2641   18.9928 C.ar      1 MOL     0.0725
      2 C5         74.7885   41.2057   18.2548 C.ar      1 MOL     0.0009
      3 C6         73.4907   41.5416   18.6411 C.ar      1 MOL     0.0187
      4 C7         71.5963   41.2687   20.1604 C.2       1 MOL    -0.0112
      5 C8         71.3491   42.4347   20.8230 C.2       1 MOL     0.0163
      6 C10        70.4868   40.5471   19.9181 C.2       1 MOL     0.0538
      7 N12        76.7673   39.9413   18.6490 N.ar      1 MOL    -0.2334
      8 C13        77.3730   40.5080   17.5837 C.ar      1 MOL     0.1153
      9 C15        75.3818   41.8072   17.1446 C.ar      1 MOL     0.0138
     10 C14        76.6927   41.4521   16.8034 C.ar      1 MOL     0.0445
     11 N16        78.6160   40.1484   17.2643 N.pl3     1 MOL    -0.3432
     12 C3         74.9271   39.6687   20.1106 C.ar      1 MOL     0.0295
     13 C2         73.6249   40.0000   20.4933 C.ar      1 MOL     0.0108
     14 C1         72.8908   40.9282   19.7533 C.ar      1 MOL    -0.0171
     15 C11        70.0837   42.7164   21.1711 C.2       1 MOL     0.0459
     16 S9         69.1885   41.4258   20.5934 S.3       1 MOL    -0.1054
     17 H161       79.2764   40.8427   16.9450 H         1 MOL     0.1442
     18 H162       78.8976   39.1815   17.3416 H         1 MOL     0.1442
@<TRIPOS>BOND
     1    2    1 ar
     2    1    7 ar
     3    1   12 ar
     4    3    2 ar
     5    2    9 ar
     6   14    3 ar
     7    4    5 1 
     8    4    6 2 
     9    4   14 1 
    10    5   15 2 
    11    6   16 1 
    12    7    8 ar
    13    8   10 ar
    14    8   11 1 
    15    9   10 ar
    16   12   13 ar
    17   13   14 ar
    18   15   16 1 
    19   17   11 1 
    20   18   11 1 
@<TRIPOS>SUBSTRUCTURE
1 MOL         1
@<TRIPOS>MOLECULE
query molecule
   18    20     1     0     0
SMALL
NO_CHARGE

@<TRIPOS>ATOM
      1 C4         77.5361   45.8386    9.9393 C.ar      1 MOL     0.0725
      2 C5         76.8358   45.0424   10.8489 C.ar      1 MOL     0.0009
      3 C6         77.3934   43.8426   11.2918 C.ar      1 MOL     0.0187
      4 C7         79.2211   42.2208   11.2667 C.2       1 MOL    -0.0112
      5 C8         79.3151   41.9403   12.5979 C.2       1 MOL     0.0163
      6 C10        79.6864   41.2339   10.4792 C.2       1 MOL     0.0538
      7 N12        77.0256   47.0061    9.5156 N.ar      1 MOL    -0.2334
      8 C13        75.8247   47.4468    9.9473 C.ar      1 MOL     0.1153
      9 C15        75.5893   45.4648   11.3118 C.ar      1 MOL     0.0138
     10 C14        75.0758   46.6842   10.8532 C.ar      1 MOL     0.0445
     11 N16        75.3440   48.6029    9.4901 N.pl3     1 MOL    -0.3432
     12 C3         78.7877   45.4278    9.4825 C.ar      1 MOL     0.0295
     13 C2         79.3429   44.2231    9.9208 C.ar      1 MOL     0.0108
     14 C1         78.6441   43.4136   10.8175 C.ar      1 MOL    -0.0171
     15 C11        79.8609   40.7711   12.9679 C.2       1 MOL     0.0459
     16 S9         80.2418   40.0074   11.5284 S.3       1 MOL    -0.1054
     17 H161       75.8083   49.0771    8.7287 H         1 MOL     0.1442
     18 H162       74.5155   49.0047    9.9050 H         1 MOL     0.1442
@<TRIPOS>BOND
     1    2    1 ar
     2    1    7 ar
     3    1   12 ar
     4    3    2 ar
     5    2    9 ar
     6   14    3 ar
     7    4    5 1 
     8    4    6 2 
     9    4   14 1 
    10    5   15 2 
    11    6   16 1 
    12    7    8 ar
    13    8   10 ar
    14    8   11 1 
    15    9   10 ar
    16   12   13 ar
    17   13   14 ar
    18   15   16 1 
    19   17   11 1 
    20   18   11 1 
@<TRIPOS>SUBSTRUCTURE
1 MOL         1
@<TRIPOS>MOLECULE
query molecule
   18    20     1     0     0
SMALL
NO_CHARGE

@<TRIPOS>ATOM
      1 C4         66.5761   52.5491   13.8138 C.ar      1 MOL     0.0725
      2 C5         66.7331   53.5327   12.8341 C.ar      1 MOL     0.0009
      3 C6         67.3394   53.2101   11.6197 C.ar      1 MOL     0.0187
      4 C7         68.4089   51.5706   10.1569 C.2       1 MOL    -0.0112
      5 C8         67.6541   51.3325    9.0463 C.2       1 MOL     0.0163
      6 C10        69.7326   51.4884    9.9301 C.2       1 MOL     0.0538
      7 N12        65.9778   52.8344   14.9816 N.ar      1 MOL    -0.2334
      8 C13        65.5137   54.0735   15.2501 C.ar      1 MOL     0.1153
      9 C15        66.2699   54.8254   13.0802 C.ar      1 MOL     0.0138
     10 C14        65.6524   55.1001   14.3067 C.ar      1 MOL     0.0445
     11 N16        64.9411   54.3216   16.4279 N.pl3     1 MOL    -0.3432
     12 C3         67.0258   51.2524   13.5689 C.ar      1 MOL     0.0295
     13 C2         67.6392   50.9311   12.3555 C.ar      1 MOL     0.0108
     14 C1         67.8142   51.9106   11.3768 C.ar      1 MOL    -0.0171
     15 C11        68.2821   51.0295    7.8994 C.2       1 MOL     0.0459
     16 S9         69.9104   51.0802    8.2821 S.3       1 MOL    -0.1054
     17 H161       64.9753   53.6288   17.1620 H         1 MOL     0.1442
     18 H162       64.4731   55.2024   16.5863 H         1 MOL     0.1442
@<TRIPOS>BOND
     1    2    1 ar
     2    1    7 ar
     3    1   12 ar
     4    3    2 ar
     5    2    9 ar
     6   14    3 ar
     7    4    5 1 
     8    4    6 2 
     9    4   14 1 
    10    5   15 2 
    11    6   16 1 
    12    7    8 ar
    13    8   10 ar
    14    8   11 1 
    15    9   10 ar
    16   12   13 ar
    17   13   14 ar
    18   15   16 1 
    19   17   11 1 
    20   18   11 1 
@<TRIPOS>SUBSTRUCTURE
1 MOL         1
@<TRIPOS>MOLECULE
query molecule
   18    20     1     0     0
SMALL
NO_CHARGE

@<TRIPOS>ATOM
      1 C4         72.3725   45.7719    7.0595 C.ar      1 MOL     0.0725
      2 C5         72.8879   47.0687    6.9927 C.ar      1 MOL     0.0009
      3 C6         72.7887   47.9113    8.1002 C.ar      1 MOL     0.0187
      4 C7         72.0658   48.3083   10.4005 C.2       1 MOL    -0.0112
      5 C8         73.0370   48.3088   11.3578 C.2       1 MOL     0.0163
      6 C10        71.0830   49.1964   10.6369 C.2       1 MOL     0.0538
      7 N12        72.4752   44.9388    6.0113 N.ar      1 MOL    -0.2334
      8 C13        73.0722   45.3232    4.8630 C.ar      1 MOL     0.1153
      9 C15        73.5067   47.5008    5.8193 C.ar      1 MOL     0.0138
     10 C14        73.5989   46.6155    4.7383 C.ar      1 MOL     0.0445
     11 N16        73.1390   44.4729    3.8387 N.pl3     1 MOL    -0.3432
     12 C3         71.7641   45.3301    8.2335 C.ar      1 MOL     0.0295
     13 C2         71.6585   46.1763    9.3402 C.ar      1 MOL     0.0108
     14 C1         72.1568   47.4785    9.2777 C.ar      1 MOL    -0.0171
     15 C11        72.9044   49.1408   12.4027 C.2       1 MOL     0.0459
     16 S9         71.4760   49.9625   12.1108 S.3       1 MOL    -0.1054
     17 H161       74.0378   44.1707    3.4910 H         1 MOL     0.1442
     18 H162       72.2908   44.1309    3.4102 H         1 MOL     0.1442
@<TRIPOS>BOND
     1    2    1 ar
     2    1    7 ar
     3    1   12 ar
     4    3    2 ar
     5    2    9 ar
     6   14    3 ar
     7    4    5 1 
     8    4    6 2 
     9    4   14 1 
    10    5   15 2 
    11    6   16 1 
    12    7    8 ar
    13    8   10 ar
    14    8   11 1 
    15    9   10 ar
    16   12   13 ar
    17   13   14 ar
    18   15   16 1 
    19   17   11 1 
    20   18   11 1 
@<TRIPOS>SUBSTRUCTURE
1 MOL         1
@<TRIPOS>MOLECULE
query molecule
   18    20     1     0     0
SMALL
NO_CHARGE

@<TRIPOS>ATOM
      1 C4         76.6693   41.2862   10.5157 C.ar      1 MOL     0.0725
      2 C5         77.2391   42.5590   10.6000 C.ar      1 MOL     0.0009
      3 C6         77.9651   43.0657    9.5216 C.ar      1 MOL     0.0187
      4 C7         78.8603   42.8054    7.2628 C.2       1 MOL    -0.0112
      5 C8         78.3291   43.7713    6.4599 C.2       1 MOL     0.0163
      6 C10        80.1108   42.4506    6.9151 C.2       1 MOL     0.0538
      7 N12        75.9507   40.7883   11.5349 N.ar      1 MOL    -0.2334
      8 C13        75.7580   41.4930   12.6703 C.ar      1 MOL     0.1153
      9 C15        77.0644   43.3128   11.7609 C.ar      1 MOL     0.0138
     10 C14        76.3140   42.7712   12.8118 C.ar      1 MOL     0.0445
     11 N16        75.0530   40.9572   13.6665 N.pl3     1 MOL    -0.3432
     12 C3         76.8299   40.5332    9.3534 C.ar      1 MOL     0.0295
     13 C2         77.5627   41.0377    8.2763 C.ar      1 MOL     0.0108
     14 C1         78.1486   42.3019    8.3571 C.ar      1 MOL    -0.0171
     15 C11        79.0672   44.2292    5.4366 C.2       1 MOL     0.0459
     16 S9         80.5082   43.3850    5.5430 S.3       1 MOL    -0.1054
     17 H161       74.1954   41.3952   13.9710 H         1 MOL     0.1442
     18 H162       75.3765   40.1131   14.1170 H         1 MOL     0.1442
@<TRIPOS>BOND
     1    2    1 ar
     2    1    7 ar
     3    1   12 ar
     4    3    2 ar
     5    2    9 ar
     6   14    3 ar
     7    4    5 1 
     8    4    6 2 
     9    4   14 1 
    10    5   15 2 
    11    6   16 1 
    12    7    8 ar
    13    8   10 ar
    14    8   11 1 
    15    9   10 ar
    16   12   13 ar
    17   13   14 ar
    18   15   16 1 
    19   17   11 1 
    20   18   11 1 
@<TRIPOS>SUBSTRUCTURE
1 MOL         1
@<TRIPOS>MOLECULE
query molecule
   18    20     1     0     0
SMALL
NO_CHARGE

@<TRIPOS>ATOM
      1 C4         63.7223   55.0532   18.2046 C.ar      1 MOL     0.0725
      2 C5         62.7788   54.2150   18.8038 C.ar      1 MOL     0.0009
      3 C6         62.8533   52.8358   18.6067 C.ar      1 MOL     0.0187
      4 C7         63.9503   50.8968   17.6026 C.2       1 MOL    -0.0112
      5 C8         64.0910   50.0462   18.6592 C.2       1 MOL     0.0163
      6 C10        63.8705   50.2661   16.4167 C.2       1 MOL     0.0538
      7 N12        63.6796   56.3814   18.3974 N.ar      1 MOL    -0.2334
      8 C13        62.7283   56.9502   19.1683 C.ar      1 MOL     0.1153
      9 C15        61.7784   54.7696   19.6025 C.ar      1 MOL     0.0138
     10 C14        61.7521   56.1576   19.7863 C.ar      1 MOL     0.0445
     11 N16        62.7090   58.2741   19.3214 N.pl3     1 MOL    -0.3432
     12 C3         64.7318   54.5038   17.4153 C.ar      1 MOL     0.0295
     13 C2         64.8022   53.1234   17.2124 C.ar      1 MOL     0.0108
     14 C1         63.8551   52.2794   17.7944 C.ar      1 MOL    -0.0171
     15 C11        64.1574   48.7281   18.4144 C.2       1 MOL     0.0459
     16 S9         64.0089   48.5982   16.7526 S.3       1 MOL    -0.1054
     17 H161       62.1743   58.8483   18.6855 H         1 MOL     0.1442
     18 H162       63.2291   58.7031   20.0734 H         1 MOL     0.1442
@<TRIPOS>BOND
     1    2    1 ar
     2    1    7 ar
     3    1   12 ar
     4    3    2 ar
     5    2    9 ar
     6   14    3 ar
     7    4    5 1 
     8    4    6 2 
     9    4   14 1 
    10    5   15 2 
    11    6   16 1 
    12    7    8 ar
    13    8   10 ar
    14    8   11 1 
    15    9   10 ar
    16   12   13 ar
    17   13   14 ar
    18   15   16 1 
    19   17   11 1 
    20   18   11 1 
@<TRIPOS>SUBSTRUCTURE
1 MOL         1
@<TRIPOS>MOLECULE
query molecule
   18    20     1     0     0
SMALL
NO_CHARGE

@<TRIPOS>ATOM
      1 C4         69.9551   51.5454   10.6778 C.ar      1 MOL     0.0725
      2 C5         68.9825   50.5468   10.7707 C.ar      1 MOL     0.0009
      3 C6         67.6309   50.8908   10.7331 C.ar      1 MOL     0.0187
      4 C7         65.8825   52.5901   10.5683 C.2       1 MOL    -0.0112
      5 C8         64.9290   51.6851   10.2056 C.2       1 MOL     0.0163
      6 C10        65.3785   53.7940   10.8955 C.2       1 MOL     0.0538
      7 N12        71.2611   51.2334   10.6926 N.ar      1 MOL    -0.2334
      8 C13        71.6776   49.9537   10.8008 C.ar      1 MOL     0.1153
      9 C15        69.3775   49.2140   10.8890 C.ar      1 MOL     0.0138
     10 C14        70.7450   48.9133   10.9057 C.ar      1 MOL     0.0445
     11 N16        72.9830   49.6860   10.8293 N.pl3     1 MOL    -0.3432
     12 C3         69.5666   52.8779   10.5469 C.ar      1 MOL     0.0295
     13 C2         68.2132   53.2230   10.5163 C.ar      1 MOL     0.0108
     14 C1         67.2344   52.2339   10.6237 C.ar      1 MOL    -0.0171
     15 C11        63.6462   52.0797   10.1895 C.2       1 MOL     0.0459
     16 S9         63.6885   53.6773   10.6857 S.3       1 MOL    -0.1054
     17 H161       73.4720   49.6501   11.7123 H         1 MOL     0.1442
     18 H162       73.4832   49.5190    9.9679 H         1 MOL     0.1442
@<TRIPOS>BOND
     1    2    1 ar
     2    1    7 ar
     3    1   12 ar
     4    3    2 ar
     5    2    9 ar
     6   14    3 ar
     7    4    5 1 
     8    4    6 2 
     9    4   14 1 
    10    5   15 2 
    11    6   16 1 
    12    7    8 ar
    13    8   10 ar
    14    8   11 1 
    15    9   10 ar
    16   12   13 ar
    17   13   14 ar
    18   15   16 1 
    19   17   11 1 
    20   18   11 1 
@<TRIPOS>SUBSTRUCTURE
1 MOL         1
@<TRIPOS>MOLECULE
query molecule
   18    20     1     0     0
SMALL
NO_CHARGE

@<TRIPOS>ATOM
      1 C4         69.1452   47.6061    8.2496 C.ar      1 MOL     0.0725
      2 C5         68.4111   47.0082    7.2222 C.ar      1 MOL     0.0009
      3 C6         68.6370   45.6703    6.8975 C.ar      1 MOL     0.0187
      4 C7         69.8346   43.5736    7.2730 C.2       1 MOL    -0.0112
      5 C8         69.0594   42.5898    7.8123 C.2       1 MOL     0.0163
      6 C10        70.7640   43.1116    6.4167 C.2       1 MOL     0.0538
      7 N12        68.9294   48.8869    8.5904 N.ar      1 MOL    -0.2334
      8 C13        68.0049   49.6379    7.9546 C.ar      1 MOL     0.1153
      9 C15        67.4513   47.7567    6.5404 C.ar      1 MOL     0.0138
     10 C14        67.2462   49.0913    6.9112 C.ar      1 MOL     0.0445
     11 N16        67.8322   50.9107    8.3105 N.pl3     1 MOL    -0.3432
     12 C3         70.0971   46.8598    8.9429 C.ar      1 MOL     0.0295
     13 C2         70.3281   45.5220    8.6131 C.ar      1 MOL     0.0108
     14 C1         69.6104   44.9205    7.5782 C.ar      1 MOL    -0.0171
     15 C11        69.3098   41.3170    7.4671 C.2       1 MOL     0.0459
     16 S9         70.5842   41.4144    6.3867 S.3       1 MOL    -0.1054
     17 H161       68.1366   51.6525    7.6964 H         1 MOL     0.1442
     18 H162       67.3969   51.1333    9.1942 H         1 MOL     0.1442
@<TRIPOS>BOND
     1    2    1 ar
     2    1    7 ar
     3    1   12 ar
     4    3    2 ar
     5    2    9 ar
     6   14    3 ar
     7    4    5 1 
     8    4    6 2 
     9    4   14 1 
    10    5   15 2 
    11    6   16 1 
    12    7    8 ar
    13    8   10 ar
    14    8   11 1 
    15    9   10 ar
    16   12   13 ar
    17   13   14 ar
    18   15   16 1 
    19   17   11 1 
    20   18   11 1 
@<TRIPOS>SUBSTRUCTURE
1 MOL         1
@<TRIPOS>MOLECULE
query molecule
   18    20     1     0     0
SMALL
NO_CHARGE

@<TRIPOS>ATOM
      1 C4         64.5205   48.2365    9.7487 C.ar      1 MOL     0.0725
      2 C5         65.4446   48.1878    8.7020 C.ar      1 MOL     0.0009
      3 C6         66.5482   49.0413    8.7122 C.ar      1 MOL     0.0187
      4 C7         67.8427   50.8155    9.7837 C.2       1 MOL    -0.0112
      5 C8         68.9597   50.5418    9.0509 C.2       1 MOL     0.0163
      6 C10        67.9227   51.9720   10.4668 C.2       1 MOL     0.0538
      7 N12        63.4621   47.4102    9.7674 N.ar      1 MOL    -0.2334
      8 C13        63.2529   46.5124    8.7810 C.ar      1 MOL     0.1153
      9 C15        65.2564   47.2756    7.6633 C.ar      1 MOL     0.0138
     10 C14        64.1436   46.4266    7.7028 C.ar      1 MOL     0.0445
     11 N16        62.1811   45.7214    8.8266 N.pl3     1 MOL    -0.3432
     12 C3         64.7098   49.1372   10.7958 C.ar      1 MOL     0.0295
     13 C2         65.8112   49.9967   10.8025 C.ar      1 MOL     0.0108
     14 C1         66.7315   49.9659    9.7537 C.ar      1 MOL    -0.0171
     15 C11        69.9870   51.4041    9.1048 C.2       1 MOL     0.0459
     16 S9         69.4650   52.6207   10.1286 S.3       1 MOL    -0.1054
     17 H161       61.4183   45.8668    8.1808 H         1 MOL     0.1442
     18 H162       62.1318   44.9766    9.5070 H         1 MOL     0.1442
@<TRIPOS>BOND
     1    2    1 ar
     2    1    7 ar
     3    1   12 ar
     4    3    2 ar
     5    2    9 ar
     6   14    3 ar
     7    4    5 1 
     8    4    6 2 
     9    4   14 1 
    10    5   15 2 
    11    6   16 1 
    12    7    8 ar
    13    8   10 ar
    14    8   11 1 
    15    9   10 ar
    16   12   13 ar
    17   13   14 ar
    18   15   16 1 
    19   17   11 1 
    20   18   11 1 
@<TRIPOS>SUBSTRUCTURE
1 MOL         1
@<TRIPOS>MOLECULE
query molecule
   18    20     1     0     0
SMALL
NO_CHARGE

@<TRIPOS>ATOM
      1 C4         70.2353   50.2113    4.7342 C.ar      1 MOL     0.0725
      2 C5         71.5803   49.8333    4.7353 C.ar      1 MOL     0.0009
      3 C6         72.2479   49.6523    5.9470 C.ar      1 MOL     0.0187
      4 C7         72.2428   49.6720    8.3905 C.2       1 MOL    -0.0112
      5 C8         71.6602   48.9593    9.3968 C.2       1 MOL     0.0163
      6 C10        73.4823   50.1017    8.6893 C.2       1 MOL     0.0538
      7 N12        69.5696   50.3717    3.5791 N.ar      1 MOL    -0.2334
      8 C13        70.1727   50.1787    2.3867 C.ar      1 MOL     0.1153
      9 C15        72.2364   49.6305    3.5209 C.ar      1 MOL     0.0138
     10 C14        71.5224   49.8072    2.3293 C.ar      1 MOL     0.0445
     11 N16        69.4827   50.3648    1.2617 N.pl3     1 MOL    -0.3432
     12 C3         69.5708   50.4033    5.9447 C.ar      1 MOL     0.0295
     13 C2         70.2413   50.2289    7.1579 C.ar      1 MOL     0.0108
     14 C1         71.5890   49.8663    7.1690 C.ar      1 MOL    -0.0171
     15 C11        72.3443   48.7898   10.5392 C.2       1 MOL     0.0459
     16 S9         73.8026   49.5682   10.2789 S.3       1 MOL    -0.1054
     17 H161       69.5525   49.6943    0.5096 H         1 MOL     0.1442
     18 H162       68.8899   51.1764    1.1613 H         1 MOL     0.1442
@<TRIPOS>BOND
     1    2    1 ar
     2    1    7 ar
     3    1   12 ar
     4    3    2 ar
     5    2    9 ar
     6   14    3 ar
     7    4    5 1 
     8    4    6 2 
     9    4   14 1 
    10    5   15 2 
    11    6   16 1 
    12    7    8 ar
    13    8   10 ar
    14    8   11 1 
    15    9   10 ar
    16   12   13 ar
    17   13   14 ar
    18   15   16 1 
    19   17   11 1 
    20   18   11 1 
@<TRIPOS>SUBSTRUCTURE
1 MOL         1
@<TRIPOS>MOLECULE
query molecule
   18    20     1     0     0
SMALL
NO_CHARGE

@<TRIPOS>ATOM
      1 C4         75.1377   46.0449    6.6155 C.ar      1 MOL     0.0725
      2 C5         75.1459   47.0685    7.5664 C.ar      1 MOL     0.0009
      3 C6         75.8413   46.8961    8.7635 C.ar      1 MOL     0.0187
      4 C7         77.2324   45.5167   10.2242 C.2       1 MOL    -0.0112
      5 C8         78.5584   45.1987   10.2095 C.2       1 MOL     0.0163
      6 C10        76.7355   45.6759   11.4645 C.2       1 MOL     0.0538
      7 N12        74.4907   46.1985    5.4489 N.ar      1 MOL    -0.2334
      8 C13        73.8268   47.3373    5.1572 C.ar      1 MOL     0.1153
      9 C15        74.4656   48.2570    7.3000 C.ar      1 MOL     0.0138
     10 C14        73.7952   48.3928    6.0781 C.ar      1 MOL     0.0445
     11 N16        73.1820   47.4448    3.9956 N.pl3     1 MOL    -0.3432
     12 C3         75.8261   44.8597    6.8706 C.ar      1 MOL     0.0295
     13 C2         76.5166   44.6845    8.0724 C.ar      1 MOL     0.0108
     14 C1         76.5178   45.6953    9.0347 C.ar      1 MOL    -0.0171
     15 C11        79.1955   45.0592   11.3827 C.2       1 MOL     0.0459
     16 S9         78.0278   45.3760   12.5388 S.3       1 MOL    -0.1054
     17 H161       73.2634   48.2904    3.4492 H         1 MOL     0.1442
     18 H162       72.6121   46.6808    3.6618 H         1 MOL     0.1442
@<TRIPOS>BOND
     1    2    1 ar
     2    1    7 ar
     3    1   12 ar
     4    3    2 ar
     5    2    9 ar
     6   14    3 ar
     7    4    5 1 
     8    4    6 2 
     9    4   14 1 
    10    5   15 2 
    11    6   16 1 
    12    7    8 ar
    13    8   10 ar
    14    8   11 1 
    15    9   10 ar
    16   12   13 ar
    17   13   14 ar
    18   15   16 1 
    19   17   11 1 
    20   18   11 1 
@<TRIPOS>SUBSTRUCTURE
1 MOL         1
@<TRIPOS>MOLECULE
query molecule
   18    20     1     0     0
SMALL
NO_CHARGE

@<TRIPOS>ATOM
      1 C4         62.3995   44.1366   17.2936 C.ar      1 MOL     0.0725
      2 C5         63.7806   44.3420   17.3420 C.ar      1 MOL     0.0009
      3 C6         64.2888   45.4954   17.9402 C.ar      1 MOL     0.0187
      4 C7         63.9243   47.6182   19.0946 C.2       1 MOL    -0.0112
      5 C8         64.3633   48.6789   18.3585 C.2       1 MOL     0.0163
      6 C10        63.9831   47.8292   20.4222 C.2       1 MOL     0.0538
      7 N12        61.8912   43.0241   16.7395 N.ar      1 MOL    -0.2334
      8 C13        62.6904   42.0734   16.2101 C.ar      1 MOL     0.1153
      9 C15        64.6357   43.3825   16.7995 C.ar      1 MOL     0.0138
     10 C14        64.0824   42.2320   16.2240 C.ar      1 MOL     0.0445
     11 N16        62.1469   40.9911   15.6535 N.pl3     1 MOL    -0.3432
     12 C3         61.5404   45.0861   17.8451 C.ar      1 MOL     0.0295
     13 C2         62.0490   46.2443   18.4380 C.ar      1 MOL     0.0108
     14 C1         63.4265   46.4655   18.4774 C.ar      1 MOL    -0.0171
     15 C11        64.8119   49.7652   19.0068 C.2       1 MOL     0.0459
     16 S9         64.6324   49.3943   20.6288 S.3       1 MOL    -0.1054
     17 H161       61.1903   40.7426   15.8613 H         1 MOL     0.1442
     18 H162       62.6918   40.4194   15.0239 H         1 MOL     0.1442
@<TRIPOS>BOND
     1    2    1 ar
     2    1    7 ar
     3    1   12 ar
     4    3    2 ar
     5    2    9 ar
     6   14    3 ar
     7    4    5 1 
     8    4    6 2 
     9    4   14 1 
    10    5   15 2 
    11    6   16 1 
    12    7    8 ar
    13    8   10 ar
    14    8   11 1 
    15    9   10 ar
    16   12   13 ar
    17   13   14 ar
    18   15   16 1 
    19   17   11 1 
    20   18   11 1 
@<TRIPOS>SUBSTRUCTURE
1 MOL         1
@<TRIPOS>MOLECULE
query molecule
   18    20     1     0     0
SMALL
NO_CHARGE

@<TRIPOS>ATOM
      1 C4         72.7336   45.7568    7.2035 C.ar      1 MOL     0.0725
      2 C5         73.2036   47.0724    7.2157 C.ar      1 MOL     0.0009
      3 C6         73.0483   47.8527    8.3618 C.ar      1 MOL     0.0187
      4 C7         72.2579   48.1049   10.6603 C.2       1 MOL    -0.0112
      5 C8         71.2618   49.0294   10.7734 C.2       1 MOL     0.0163
      6 C10        73.0130   47.9958   11.7686 C.2       1 MOL     0.0538
      7 N12        72.8906   44.9831    6.1172 N.ar      1 MOL    -0.2334
      8 C13        73.5002   45.4468    5.0054 C.ar      1 MOL     0.1153
      9 C15        73.8339   47.5857    6.0819 C.ar      1 MOL     0.0138
     10 C14        73.9831   46.7612    4.9599 C.ar      1 MOL     0.0445
     11 N16        73.6214   44.6534    3.9412 N.pl3     1 MOL    -0.3432
     12 C3         72.1140   45.2342    8.3378 C.ar      1 MOL     0.0295
     13 C2         71.9522   46.0178    9.4830 C.ar      1 MOL     0.0108
     14 C1         72.4049   47.3380    9.4995 C.ar      1 MOL    -0.0171
     15 C11        71.1588   49.7214   11.9189 C.2       1 MOL     0.0459
     16 S9         72.3897   49.1273   12.8845 S.3       1 MOL    -0.1054
     17 H161       73.5188   43.6538    4.0421 H         1 MOL     0.1442
     18 H162       73.8159   45.0520    3.0338 H         1 MOL     0.1442
@<TRIPOS>BOND
     1    2    1 ar
     2    1    7 ar
     3    1   12 ar
     4    3    2 ar
     5    2    9 ar
     6   14    3 ar
     7    4    5 1 
     8    4    6 2 
     9    4   14 1 
    10    5   15 2 
    11    6   16 1 
    12    7    8 ar
    13    8   10 ar
    14    8   11 1 
    15    9   10 ar
    16   12   13 ar
    17   13   14 ar
    18   15   16 1 
    19   17   11 1 
    20   18   11 1 
@<TRIPOS>SUBSTRUCTURE
1 MOL         1
@<TRIPOS>MOLECULE
query molecule
   18    20     1     0     0
SMALL
NO_CHARGE

@<TRIPOS>ATOM
      1 C4         66.4530   48.2840    7.1850 C.ar      1 MOL     0.0725
      2 C5         66.8105   48.2726    8.5356 C.ar      1 MOL     0.0009
      3 C6         68.1151   48.5962    8.9094 C.ar      1 MOL     0.0187
      4 C7         70.3889   49.2560    8.3044 C.2       1 MOL    -0.0112
      5 C8         70.9132   48.8662    9.5015 C.2       1 MOL     0.0163
      6 C10        71.2599   49.9358    7.5364 C.2       1 MOL     0.0538
      7 N12        65.1977   47.9945    6.8060 N.ar      1 MOL    -0.2334
      8 C13        64.2447   47.6808    7.7094 C.ar      1 MOL     0.1153
      9 C15        65.8519   47.9477    9.4957 C.ar      1 MOL     0.0138
     10 C14        64.5504   47.6461    9.0763 C.ar      1 MOL     0.0445
     11 N16        63.0144   47.3825    7.2923 N.pl3     1 MOL    -0.3432
     12 C3         67.4033   48.6200    6.2218 C.ar      1 MOL     0.0295
     13 C2         68.7115   48.9372    6.5957 C.ar      1 MOL     0.0108
     14 C1         69.0819   48.9137    7.9411 C.ar      1 MOL    -0.0171
     15 C11        72.1796   49.2080    9.7865 C.2       1 MOL     0.0459
     16 S9         72.7060   50.0456    8.4367 S.3       1 MOL    -0.1054
     17 H161       62.4691   48.0714    6.7941 H         1 MOL     0.1442
     18 H162       62.6274   46.4675    7.4744 H         1 MOL     0.1442
@<TRIPOS>BOND
     1    2    1 ar
     2    1    7 ar
     3    1   12 ar
     4    3    2 ar
     5    2    9 ar
     6   14    3 ar
     7    4    5 1 
     8    4    6 2 
     9    4   14 1 
    10    5   15 2 
    11    6   16 1 
    12    7    8 ar
    13    8   10 ar
    14    8   11 1 
    15    9   10 ar
    16   12   13 ar
    17   13   14 ar
    18   15   16 1 
    19   17   11 1 
    20   18   11 1 
@<TRIPOS>SUBSTRUCTURE
1 MOL         1
@<TRIPOS>MOLECULE
query molecule
   18    20     1     0     0
SMALL
NO_CHARGE

@<TRIPOS>ATOM
      1 C4         72.9569   42.9457    7.8407 C.ar      1 MOL     0.0725
      2 C5         73.1978   42.8704    6.4666 C.ar      1 MOL     0.0009
      3 C6         74.5057   42.9491    5.9874 C.ar      1 MOL     0.0187
      4 C7         76.9019   43.1883    6.4028 C.2       1 MOL    -0.0112
      5 C8         77.4721   44.3789    6.0607 C.2       1 MOL     0.0163
      6 C10        77.7399   42.1421    6.2859 C.2       1 MOL     0.0538
      7 N12        71.7073   42.8526    8.3235 N.ar      1 MOL    -0.2334
      8 C13        70.6469   42.6879    7.5041 C.ar      1 MOL     0.1153
      9 C15        72.1246   42.7057    5.5906 C.ar      1 MOL     0.0138
     10 C14        70.8302   42.6145    6.1170 C.ar      1 MOL     0.0445
     11 N16        69.4202   42.6171    8.0205 N.pl3     1 MOL    -0.3432
     12 C3         74.0263   43.0977    8.7221 C.ar      1 MOL     0.0295
     13 C2         75.3354   43.1835    8.2417 C.ar      1 MOL     0.0108
     14 C1         75.5845   43.1246    6.8697 C.ar      1 MOL    -0.0171
     15 C11        78.7460   44.3795    5.6377 C.2       1 MOL     0.0459
     16 S9         79.2174   42.7754    5.7116 S.3       1 MOL    -0.1054
     17 H161       69.1825   41.8698    8.6569 H         1 MOL     0.1442
     18 H162       68.7283   43.3109    7.7753 H         1 MOL     0.1442
@<TRIPOS>BOND
     1    2    1 ar
     2    1    7 ar
     3    1   12 ar
     4    3    2 ar
     5    2    9 ar
     6   14    3 ar
     7    4    5 1 
     8    4    6 2 
     9    4   14 1 
    10    5   15 2 
    11    6   16 1 
    12    7    8 ar
    13    8   10 ar
    14    8   11 1 
    15    9   10 ar
    16   12   13 ar
    17   13   14 ar
    18   15   16 1 
    19   17   11 1 
    20   18   11 1 
@<TRIPOS>SUBSTRUCTURE
1 MOL         1
@<TRIPOS>MOLECULE
query molecule
   18    20     1     0     0
SMALL
NO_CHARGE

@<TRIPOS>ATOM
      1 C4         73.2207   47.5115    3.3467 C.ar      1 MOL     0.0725
      2 C5         73.3982   46.2791    3.9803 C.ar      1 MOL     0.0009
      3 C6         73.8755   46.2363    5.2906 C.ar      1 MOL     0.0187
      4 C7         74.6642   47.3898    7.2953 C.2       1 MOL    -0.0112
      5 C8         75.6433   46.5220    7.6800 C.2       1 MOL     0.0163
      6 C10        74.2556   48.2058    8.2841 C.2       1 MOL     0.0538
      7 N12        72.7442   47.5752    2.0929 N.ar      1 MOL    -0.2334
      8 C13        72.4257   46.4587    1.4038 C.ar      1 MOL     0.1153
      9 C15        73.0842   45.1048    3.2956 C.ar      1 MOL     0.0138
     10 C14        72.5920   45.1960    1.9878 C.ar      1 MOL     0.0445
     11 N16        71.9719   46.5625    0.1549 N.pl3     1 MOL    -0.3432
     12 C3         73.5211   48.6890    4.0301 C.ar      1 MOL     0.0295
     13 C2         74.0056   48.6458    5.3397 C.ar      1 MOL     0.0108
     14 C1         74.2006   47.4188    5.9756 C.ar      1 MOL    -0.0171
     15 C11        76.0610   46.5539    8.9552 C.2       1 MOL     0.0459
     16 S9         75.1600   47.7722    9.6654 S.3       1 MOL    -0.1054
     17 H161       72.3361   47.2787   -0.4570 H         1 MOL     0.1442
     18 H162       71.2637   45.9248   -0.1797 H         1 MOL     0.1442
@<TRIPOS>BOND
     1    2    1 ar
     2    1    7 ar
     3    1   12 ar
     4    3    2 ar
     5    2    9 ar
     6   14    3 ar
     7    4    5 1 
     8    4    6 2 
     9    4   14 1 
    10    5   15 2 
    11    6   16 1 
    12    7    8 ar
    13    8   10 ar
    14    8   11 1 
    15    9   10 ar
    16   12   13 ar
    17   13   14 ar
    18   15   16 1 
    19   17   11 1 
    20   18   11 1 
@<TRIPOS>SUBSTRUCTURE
1 MOL         1
@<TRIPOS>MOLECULE
query molecule
   18    20     1     0     0
SMALL
NO_CHARGE

@<TRIPOS>ATOM
      1 C4         70.8264   50.9977   11.9102 C.ar      1 MOL     0.0725
      2 C5         70.4711   51.9772   12.8410 C.ar      1 MOL     0.0009
      3 C6         69.5215   52.9418   12.5030 C.ar      1 MOL     0.0187
      4 C7         67.9664   53.9054   10.8830 C.2       1 MOL    -0.0112
      5 C8         68.2798   54.9751   10.0973 C.2       1 MOL     0.0163
      6 C10        66.6663   53.8585   11.2268 C.2       1 MOL     0.0538
      7 N12        71.7239   50.0490   12.2226 N.ar      1 MOL    -0.2334
      8 C13        72.3132   50.0104   13.4367 C.ar      1 MOL     0.1153
      9 C15        71.0646   51.9704   14.1036 C.ar      1 MOL     0.0138
     10 C14        72.0002   50.9732   14.4052 C.ar      1 MOL     0.0445
     11 N16        73.2122   49.0629   13.7027 N.pl3     1 MOL    -0.3432
     12 C3         70.2277   50.9919   10.6512 C.ar      1 MOL     0.0295
     13 C2         69.2819   51.9620   10.3104 C.ar      1 MOL     0.0108
     14 C1         68.9319   52.9535   11.2281 C.ar      1 MOL    -0.0171
     15 C11        67.3068   55.8448    9.7835 C.2       1 MOL     0.0459
     16 S9         65.9360   55.2307   10.5214 S.3       1 MOL    -0.1054
     17 H161       73.8429   48.7479   12.9796 H         1 MOL     0.1442
     18 H162       73.2626   48.6601   14.6275 H         1 MOL     0.1442
@<TRIPOS>BOND
     1    2    1 ar
     2    1    7 ar
     3    1   12 ar
     4    3    2 ar
     5    2    9 ar
     6   14    3 ar
     7    4    5 1 
     8    4    6 2 
     9    4   14 1 
    10    5   15 2 
    11    6   16 1 
    12    7    8 ar
    13    8   10 ar
    14    8   11 1 
    15    9   10 ar
    16   12   13 ar
    17   13   14 ar
    18   15   16 1 
    19   17   11 1 
    20   18   11 1 
@<TRIPOS>SUBSTRUCTURE
1 MOL         1
@<TRIPOS>MOLECULE
query molecule
   18    20     1     0     0
SMALL
NO_CHARGE

@<TRIPOS>ATOM
      1 C4         67.3853   51.1608   11.5968 C.ar      1 MOL     0.0725
      2 C5         68.3007   50.3211   10.9575 C.ar      1 MOL     0.0009
      3 C6         69.5784   50.1543   11.4926 C.ar      1 MOL     0.0187
      4 C7         71.2366   50.6660   13.2130 C.2       1 MOL    -0.0112
      5 C8         71.8930   49.4745   13.1172 C.2       1 MOL     0.0163
      6 C10        71.9517   51.6207   13.8358 C.2       1 MOL     0.0538
      7 N12        66.1444   51.3198   11.1088 N.ar      1 MOL    -0.2334
      8 C13        65.7417   50.6817    9.9892 C.ar      1 MOL     0.1153
      9 C15        67.9197   49.6502    9.7952 C.ar      1 MOL     0.0138
     10 C14        66.6217   49.8343    9.3032 C.ar      1 MOL     0.0445
     11 N16        64.5074   50.8790    9.5264 N.pl3     1 MOL    -0.3432
     12 C3         67.7560   51.8243   12.7656 C.ar      1 MOL     0.0295
     13 C2         69.0377   51.6626   13.2975 C.ar      1 MOL     0.0108
     14 C1         69.9641   50.8379   12.6575 C.ar      1 MOL    -0.0171
     15 C11        73.1198   49.3756   13.6527 C.2       1 MOL     0.0459
     16 S9         73.4314   50.8951   14.2807 S.3       1 MOL    -0.1054
     17 H161       63.8790   51.5019   10.0134 H         1 MOL     0.1442
     18 H162       64.2005   50.4055    8.6888 H         1 MOL     0.1442
@<TRIPOS>BOND
     1    2    1 ar
     2    1    7 ar
     3    1   12 ar
     4    3    2 ar
     5    2    9 ar
     6   14    3 ar
     7    4    5 1 
     8    4    6 2 
     9    4   14 1 
    10    5   15 2 
    11    6   16 1 
    12    7    8 ar
    13    8   10 ar
    14    8   11 1 
    15    9   10 ar
    16   12   13 ar
    17   13   14 ar
    18   15   16 1 
    19   17   11 1 
    20   18   11 1 
@<TRIPOS>SUBSTRUCTURE
1 MOL         1
@<TRIPOS>MOLECULE
query molecule
   18    20     1     0     0
SMALL
NO_CHARGE

@<TRIPOS>ATOM
      1 C4         69.1175   49.7384    8.6002 C.ar      1 MOL     0.0725
      2 C5         68.3021   49.7547    9.7346 C.ar      1 MOL     0.0009
      3 C6         68.8488   50.0820   10.9758 C.ar      1 MOL     0.0187
      4 C7         70.7731   50.7213   12.3395 C.2       1 MOL    -0.0112
      5 C8         71.9926   50.2454   12.7218 C.2       1 MOL     0.0163
      6 C10        70.2230   51.5609   13.2357 C.2       1 MOL     0.0538
      7 N12        68.6068   49.4450    7.3934 N.ar      1 MOL    -0.2334
      8 C13        67.2980   49.1538    7.2352 C.ar      1 MOL     0.1153
      9 C15        66.9458   49.4535    9.6083 C.ar      1 MOL     0.0138
     10 C14        66.4367   49.1472    8.3403 C.ar      1 MOL     0.0445
     11 N16        66.8324   48.8507    6.0236 N.pl3     1 MOL    -0.3432
     12 C3         70.4711   50.0508    8.7180 C.ar      1 MOL     0.0295
     13 C2         71.0199   50.3716    9.9621 C.ar      1 MOL     0.0108
     14 C1         70.2165   50.3756   11.1033 C.ar      1 MOL    -0.0171
     15 C11        72.4839   50.6276   13.9110 C.2       1 MOL     0.0459
     16 S9         71.3236   51.6585   14.5368 S.3       1 MOL    -0.1054
     17 H161       67.4574   48.8409    5.2303 H         1 MOL     0.1442
     18 H162       65.8546   48.6308    5.8989 H         1 MOL     0.1442
@<TRIPOS>BOND
     1    2    1 ar
     2    1    7 ar
     3    1   12 ar
     4    3    2 ar
     5    2    9 ar
     6   14    3 ar
     7    4    5 1 
     8    4    6 2 
     9    4   14 1 
    10    5   15 2 
    11    6   16 1 
    12    7    8 ar
    13    8   10 ar
    14    8   11 1 
    15    9   10 ar
    16   12   13 ar
    17   13   14 ar
    18   15   16 1 
    19   17   11 1 
    20   18   11 1 
@<TRIPOS>SUBSTRUCTURE
1 MOL         1
@<TRIPOS>MOLECULE
query molecule
   18    20     1     0     0
SMALL
NO_CHARGE

@<TRIPOS>ATOM
      1 C4         74.9025   46.8261    7.8740 C.ar      1 MOL     0.0725
      2 C5         75.3164   47.9381    8.6116 C.ar      1 MOL     0.0009
      3 C6         76.3521   47.8087    9.5374 C.ar      1 MOL     0.0187
      4 C7         78.0221   46.4277   10.6666 C.2       1 MOL    -0.0112
      5 C8         77.9642   45.5103   11.6739 C.2       1 MOL     0.0163
      6 C10        79.1792   47.1138   10.6355 C.2       1 MOL     0.0538
      7 N12        73.9207   46.9341    6.9642 N.ar      1 MOL    -0.2334
      8 C13        73.3008   48.1112    6.7344 C.ar      1 MOL     0.1153
      9 C15        74.6938   49.1691    8.4034 C.ar      1 MOL     0.0138
     10 C14        73.6702   49.2566    7.4519 C.ar      1 MOL     0.0445
     11 N16        72.3188   48.1740    5.8353 N.pl3     1 MOL    -0.3432
     12 C3         75.5291   45.5960    8.0686 C.ar      1 MOL     0.0295
     13 C2         76.5615   45.4649    9.0007 C.ar      1 MOL     0.0108
     14 C1         76.9716   46.5666    9.7531 C.ar      1 MOL    -0.0171
     15 C11        79.0112   45.4095   12.5078 C.2       1 MOL     0.0459
     16 S9         80.1131   46.5346   11.9417 S.3       1 MOL    -0.1054
     17 H161       72.0431   47.3443    5.3298 H         1 MOL     0.1442
     18 H162       71.8503   49.0514    5.6597 H         1 MOL     0.1442
@<TRIPOS>BOND
     1    2    1 ar
     2    1    7 ar
     3    1   12 ar
     4    3    2 ar
     5    2    9 ar
     6   14    3 ar
     7    4    5 1 
     8    4    6 2 
     9    4   14 1 
    10    5   15 2 
    11    6   16 1 
    12    7    8 ar
    13    8   10 ar
    14    8   11 1 
    15    9   10 ar
    16   12   13 ar
    17   13   14 ar
    18   15   16 1 
    19   17   11 1 
    20   18   11 1 
@<TRIPOS>SUBSTRUCTURE
1 MOL         1
@<TRIPOS>MOLECULE
query molecule
   18    20     1     0     0
SMALL
NO_CHARGE

@<TRIPOS>ATOM
      1 C4         70.7000   50.3947   11.8971 C.ar      1 MOL     0.0725
      2 C5         70.5092   49.9820   10.5761 C.ar      1 MOL     0.0009
      3 C6         71.5517   49.3616    9.8869 C.ar      1 MOL     0.0187
      4 C7         73.8483   48.5292    9.8241 C.2       1 MOL    -0.0112
      5 C8         74.6107   47.5804   10.4391 C.2       1 MOL     0.0163
      6 C10        74.1839   48.7314    8.5368 C.2       1 MOL     0.0538
      7 N12        69.7034   50.9762   12.5841 N.ar      1 MOL    -0.2334
      8 C13        68.4920   51.1845   12.0256 C.ar      1 MOL     0.1153
      9 C15        69.2714   50.1865    9.9660 C.ar      1 MOL     0.0138
     10 C14        68.2483   50.7979   10.7011 C.ar      1 MOL     0.0445
     11 N16        67.5335   51.7805   12.7346 N.pl3     1 MOL    -0.3432
     12 C3         71.9308   50.1819   12.5163 C.ar      1 MOL     0.0295
     13 C2         72.9768   49.5669   11.8239 C.ar      1 MOL     0.0108
     14 C1         72.8006   49.1649   10.4990 C.ar      1 MOL    -0.0171
     15 C11        75.5895   46.9912    9.7345 C.2       1 MOL     0.0459
     16 S9         75.4935   47.6849    8.2147 S.3       1 MOL    -0.1054
     17 H161       67.7580   52.5684   13.3252 H         1 MOL     0.1442
     18 H162       66.5827   51.4442   12.6811 H         1 MOL     0.1442
@<TRIPOS>BOND
     1    2    1 ar
     2    1    7 ar
     3    1   12 ar
     4    3    2 ar
     5    2    9 ar
     6   14    3 ar
     7    4    5 1 
     8    4    6 2 
     9    4   14 1 
    10    5   15 2 
    11    6   16 1 
    12    7    8 ar
    13    8   10 ar
    14    8   11 1 
    15    9   10 ar
    16   12   13 ar
    17   13   14 ar
    18   15   16 1 
    19   17   11 1 
    20   18   11 1 
@<TRIPOS>SUBSTRUCTURE
1 MOL         1
@<TRIPOS>MOLECULE
query molecule
   18    20     1     0     0
SMALL
NO_CHARGE

@<TRIPOS>ATOM
      1 C4         67.8201   53.1632   11.5342 C.ar      1 MOL     0.0725
      2 C5         68.6689   53.3658   10.4431 C.ar      1 MOL     0.0009
      3 C6         69.6696   52.4351   10.1619 C.ar      1 MOL     0.0187
      4 C7         70.8374   50.3558   10.6950 C.2       1 MOL    -0.0112
      5 C8         70.7963   49.1093   11.2466 C.2       1 MOL     0.0163
      6 C10        71.8708   50.5322    9.8514 C.2       1 MOL     0.0538
      7 N12        66.8386   54.0370   11.8103 N.ar      1 MOL    -0.2334
      8 C13        66.6410   55.1360   11.0515 C.ar      1 MOL     0.1153
      9 C15        68.4965   54.4939    9.6407 C.ar      1 MOL     0.0138
     10 C14        67.4684   55.3928    9.9502 C.ar      1 MOL     0.0445
     11 N16        65.6668   55.9888   11.3683 N.pl3     1 MOL    -0.3432
     12 C3         67.9795   52.0313   12.3324 C.ar      1 MOL     0.0295
     13 C2         68.9860   51.1030   12.0549 C.ar      1 MOL     0.0108
     14 C1         69.8485   51.3046   10.9763 C.ar      1 MOL    -0.0171
     15 C11        71.7625   48.2352   10.9241 C.2       1 MOL     0.0459
     16 S9         72.7413   49.0639    9.8490 S.3       1 MOL    -0.1054
     17 H161       65.4998   56.2281   12.3351 H         1 MOL     0.1442
     18 H162       65.0958   56.3957   10.6414 H         1 MOL     0.1442
@<TRIPOS>BOND
     1    2    1 ar
     2    1    7 ar
     3    1   12 ar
     4    3    2 ar
     5    2    9 ar
     6   14    3 ar
     7    4    5 1 
     8    4    6 2 
     9    4   14 1 
    10    5   15 2 
    11    6   16 1 
    12    7    8 ar
    13    8   10 ar
    14    8   11 1 
    15    9   10 ar
    16   12   13 ar
    17   13   14 ar
    18   15   16 1 
    19   17   11 1 
    20   18   11 1 
@<TRIPOS>SUBSTRUCTURE
1 MOL         1
@<TRIPOS>MOLECULE
query molecule
   18    20     1     0     0
SMALL
NO_CHARGE

@<TRIPOS>ATOM
      1 C4         71.9573   50.1440   11.7450 C.ar      1 MOL     0.0725
      2 C5         71.4961   50.3585   10.4437 C.ar      1 MOL     0.0009
      3 C6         70.4858   51.2925   10.2122 C.ar      1 MOL     0.0187
      4 C7         68.9082   52.9576   11.0548 C.2       1 MOL    -0.0112
      5 C8         67.8057   53.0198   11.8550 C.2       1 MOL     0.0163
      6 C10        68.9317   53.9092   10.1038 C.2       1 MOL     0.0538
      7 N12        72.9421   49.2637   11.9865 N.ar      1 MOL    -0.2334
      8 C13        73.5147   48.5573   10.9886 C.ar      1 MOL     0.1153
      9 C15        72.0618   49.6417    9.3891 C.ar      1 MOL     0.0138
     10 C14        73.0851   48.7268    9.6658 C.ar      1 MOL     0.0445
     11 N16        74.4778   47.6802   11.2709 N.pl3     1 MOL    -0.3432
     12 C3         71.4045   50.8663   12.8016 C.ar      1 MOL     0.0295
     13 C2         70.3880   51.7964   12.5705 C.ar      1 MOL     0.0108
     14 C1         69.9102   52.0066   11.2761 C.ar      1 MOL    -0.0171
     15 C11        66.8872   53.9663   11.6056 C.2       1 MOL     0.0459
     16 S9         67.4972   54.8139   10.2979 S.3       1 MOL    -0.1054
     17 H161       74.3976   47.0863   12.0839 H         1 MOL     0.1442
     18 H162       75.2879   47.6094   10.6718 H         1 MOL     0.1442
@<TRIPOS>BOND
     1    2    1 ar
     2    1    7 ar
     3    1   12 ar
     4    3    2 ar
     5    2    9 ar
     6   14    3 ar
     7    4    5 1 
     8    4    6 2 
     9    4   14 1 
    10    5   15 2 
    11    6   16 1 
    12    7    8 ar
    13    8   10 ar
    14    8   11 1 
    15    9   10 ar
    16   12   13 ar
    17   13   14 ar
    18   15   16 1 
    19   17   11 1 
    20   18   11 1 
@<TRIPOS>SUBSTRUCTURE
1 MOL         1
@<TRIPOS>MOLECULE
query molecule
   18    20     1     0     0
SMALL
NO_CHARGE

@<TRIPOS>ATOM
      1 C4         68.9958   48.8099    6.8422 C.ar      1 MOL     0.0725
      2 C5         69.2959   47.9781    7.9239 C.ar      1 MOL     0.0009
      3 C6         70.6212   47.8230    8.3314 C.ar      1 MOL     0.0187
      4 C7         72.9936   48.3434    8.0626 C.2       1 MOL    -0.0112
      5 C8         73.8228   47.4321    7.4780 C.2       1 MOL     0.0163
      6 C10        73.6005   49.0915    9.0020 C.2       1 MOL     0.0538
      7 N12        67.7250   48.9878    6.4466 N.ar      1 MOL    -0.2334
      8 C13        66.7002   48.3708    7.0727 C.ar      1 MOL     0.1153
      9 C15        68.2618   47.3207    8.5907 C.ar      1 MOL     0.0138
     10 C14        66.9449   47.5189    8.1578 C.ar      1 MOL     0.0445
     11 N16        65.4540   48.5592    6.6391 N.pl3     1 MOL    -0.3432
     12 C3         70.0237   49.4793    6.1797 C.ar      1 MOL     0.0295
     13 C2         71.3514   49.3185    6.5835 C.ar      1 MOL     0.0108
     14 C1         71.6626   48.4778    7.6532 C.ar      1 MOL    -0.0171
     15 C11        75.0952   47.3626    7.8997 C.2       1 MOL     0.0459
     16 S9         75.2144   48.5412    9.0817 S.3       1 MOL    -0.1054
     17 H161       64.7804   49.0289    7.2270 H         1 MOL     0.1442
     18 H162       65.1834   48.2323    5.7227 H         1 MOL     0.1442
@<TRIPOS>BOND
     1    2    1 ar
     2    1    7 ar
     3    1   12 ar
     4    3    2 ar
     5    2    9 ar
     6   14    3 ar
     7    4    5 1 
     8    4    6 2 
     9    4   14 1 
    10    5   15 2 
    11    6   16 1 
    12    7    8 ar
    13    8   10 ar
    14    8   11 1 
    15    9   10 ar
    16   12   13 ar
    17   13   14 ar
    18   15   16 1 
    19   17   11 1 
    20   18   11 1 
@<TRIPOS>SUBSTRUCTURE
1 MOL         1
@<TRIPOS>MOLECULE
query molecule
   18    20     1     0     0
SMALL
NO_CHARGE

@<TRIPOS>ATOM
      1 C4         70.9607   43.0576    6.5139 C.ar      1 MOL     0.0725
      2 C5         71.2517   43.9475    7.5509 C.ar      1 MOL     0.0009
      3 C6         70.7324   43.7192    8.8255 C.ar      1 MOL     0.0187
      4 C7         69.3882   42.3659   10.3529 C.2       1 MOL    -0.0112
      5 C8         70.2071   42.0195   11.3869 C.2       1 MOL     0.0163
      6 C10        68.0960   42.4792   10.7105 C.2       1 MOL     0.0538
      7 N12        71.4665   43.2487    5.2847 N.ar      1 MOL    -0.2334
      8 C13        72.2649   44.3018    5.0083 C.ar      1 MOL     0.1153
      9 C15        72.0693   45.0495    7.2992 C.ar      1 MOL     0.0138
     10 C14        72.5822   45.2299    6.0088 C.ar      1 MOL     0.0445
     11 N16        72.7332   44.4666    3.7714 N.pl3     1 MOL    -0.3432
     12 C3         70.1544   41.9476    6.7621 C.ar      1 MOL     0.0295
     13 C2         69.6288   41.7230    8.0369 C.ar      1 MOL     0.0108
     14 C1         69.9014   42.6146    9.0754 C.ar      1 MOL    -0.0171
     15 C11        69.6593   41.8123   12.5946 C.2       1 MOL     0.0459
     16 S9         68.0259   42.1017   12.3738 S.3       1 MOL    -0.1054
     17 H161       73.7250   44.3978    3.5935 H         1 MOL     0.1442
     18 H162       72.0962   44.6603    3.0119 H         1 MOL     0.1442
@<TRIPOS>BOND
     1    2    1 ar
     2    1    7 ar
     3    1   12 ar
     4    3    2 ar
     5    2    9 ar
     6   14    3 ar
     7    4    5 1 
     8    4    6 2 
     9    4   14 1 
    10    5   15 2 
    11    6   16 1 
    12    7    8 ar
    13    8   10 ar
    14    8   11 1 
    15    9   10 ar
    16   12   13 ar
    17   13   14 ar
    18   15   16 1 
    19   17   11 1 
    20   18   11 1 
@<TRIPOS>SUBSTRUCTURE
1 MOL         1
@<TRIPOS>MOLECULE
query molecule
   18    20     1     0     0
SMALL
NO_CHARGE

@<TRIPOS>ATOM
      1 C4         67.1324   53.3065   11.8294 C.ar      1 MOL     0.0725
      2 C5         68.2867   53.6629   11.1275 C.ar      1 MOL     0.0009
      3 C6         69.4640   52.9387   11.3174 C.ar      1 MOL     0.0187
      4 C7         70.6792   51.1220   12.4102 C.2       1 MOL    -0.0112
      5 C8         71.1338   50.2691   11.4481 C.2       1 MOL     0.0163
      6 C10        71.4835   51.1894   13.4869 C.2       1 MOL     0.0538
      7 N12        65.9842   53.9785   11.6464 N.ar      1 MOL    -0.2334
      8 C13        65.9060   55.0168   10.7870 C.ar      1 MOL     0.1153
      9 C15        68.2430   54.7344   10.2352 C.ar      1 MOL     0.0138
     10 C14        67.0354   55.4222   10.0635 C.ar      1 MOL     0.0445
     11 N16        64.7526   55.6697   10.6459 N.pl3     1 MOL    -0.3432
     12 C3         67.1665   52.2289   12.7132 C.ar      1 MOL     0.0295
     13 C2         68.3473   51.5082   12.9085 C.ar      1 MOL     0.0108
     14 C1         69.5093   51.8662   12.2234 C.ar      1 MOL    -0.0171
     15 C11        72.2729   49.5966   11.6762 C.2       1 MOL     0.0459
     16 S9         72.7746   50.1139   13.1866 S.3       1 MOL    -0.1054
     17 H161       64.2617   55.6428    9.7637 H         1 MOL     0.1442
     18 H162       64.3695   56.1913   11.4213 H         1 MOL     0.1442
@<TRIPOS>BOND
     1    2    1 ar
     2    1    7 ar
     3    1   12 ar
     4    3    2 ar
     5    2    9 ar
     6   14    3 ar
     7    4    5 1 
     8    4    6 2 
     9    4   14 1 
    10    5   15 2 
    11    6   16 1 
    12    7    8 ar
    13    8   10 ar
    14    8   11 1 
    15    9   10 ar
    16   12   13 ar
    17   13   14 ar
    18   15   16 1 
    19   17   11 1 
    20   18   11 1 
@<TRIPOS>SUBSTRUCTURE
1 MOL         1
@<TRIPOS>MOLECULE
query molecule
   18    20     1     0     0
SMALL
NO_CHARGE

@<TRIPOS>ATOM
      1 C4         69.5630   50.3729   11.5642 C.ar      1 MOL     0.0725
      2 C5         70.8055   50.7284   12.0951 C.ar      1 MOL     0.0009
      3 C6         71.9746   50.3546   11.4317 C.ar      1 MOL     0.0187
      4 C7         73.0834   49.2388    9.5617 C.2       1 MOL    -0.0112
      5 C8         73.3899   49.7814    8.3487 C.2       1 MOL     0.0163
      6 C10        74.0193   48.3859   10.0167 C.2       1 MOL     0.0538
      7 N12        68.4258   50.7397   12.1770 N.ar      1 MOL    -0.2334
      8 C13        68.4425   51.4561   13.3212 C.ar      1 MOL     0.1153
      9 C15        70.8599   51.4642   13.2791 C.ar      1 MOL     0.0138
     10 C14        69.6609   51.8322   13.9019 C.ar      1 MOL     0.0445
     11 N16        67.2925   51.7861   13.9087 N.pl3     1 MOL    -0.3432
     12 C3         69.5018   49.6483   10.3747 C.ar      1 MOL     0.0295
     13 C2         70.6727   49.2681    9.7142 C.ar      1 MOL     0.0108
     14 C1         71.9187   49.6054   10.2448 C.ar      1 MOL    -0.0171
     15 C11        74.5310   49.4054    7.7501 C.2       1 MOL     0.0459
     16 S9         75.2337   48.3259    8.8185 S.3       1 MOL    -0.1054
     17 H161       66.8213   51.1214   14.5055 H         1 MOL     0.1442
     18 H162       66.8923   52.7009   13.7570 H         1 MOL     0.1442
@<TRIPOS>BOND
     1    2    1 ar
     2    1    7 ar
     3    1   12 ar
     4    3    2 ar
     5    2    9 ar
     6   14    3 ar
     7    4    5 1 
     8    4    6 2 
     9    4   14 1 
    10    5   15 2 
    11    6   16 1 
    12    7    8 ar
    13    8   10 ar
    14    8   11 1 
    15    9   10 ar
    16   12   13 ar
    17   13   14 ar
    18   15   16 1 
    19   17   11 1 
    20   18   11 1 
@<TRIPOS>SUBSTRUCTURE
1 MOL         1
@<TRIPOS>MOLECULE
query molecule
   18    20     1     0     0
SMALL
NO_CHARGE

@<TRIPOS>ATOM
      1 C4         64.1209   48.3331   14.0076 C.ar      1 MOL     0.0725
      2 C5         64.1527   46.9368   14.0428 C.ar      1 MOL     0.0009
      3 C6         63.8585   46.2080   12.8900 C.ar      1 MOL     0.0187
      4 C7         63.2286   46.1425   10.5299 C.2       1 MOL    -0.0112
      5 C8         62.0079   46.2245    9.9275 C.2       1 MOL     0.0163
      6 C10        64.0994   45.3598    9.8669 C.2       1 MOL     0.0538
      7 N12        64.4197   49.0531   15.1010 N.ar      1 MOL    -0.2334
      8 C13        64.7551   48.4578   16.2655 C.ar      1 MOL     0.1153
      9 C15        64.4901   46.2885   15.2312 C.ar      1 MOL     0.0138
     10 C14        64.7944   47.0604   16.3593 C.ar      1 MOL     0.0445
     11 N16        65.0281   49.2069   17.3336 N.pl3     1 MOL    -0.3432
     12 C3         63.7965   48.9868   12.8197 C.ar      1 MOL     0.0295
     13 C2         63.4952   48.2569   11.6672 C.ar      1 MOL     0.0108
     14 C1         63.5094   46.8616   11.6967 C.ar      1 MOL    -0.0171
     15 C11        61.8036   45.5266    8.7992 C.2       1 MOL     0.0459
     16 S9         63.2611   44.7579    8.5072 S.3       1 MOL    -0.1054
     17 H161       64.2761   49.5658   17.9043 H         1 MOL     0.1442
     18 H162       65.9870   49.4156   17.5722 H         1 MOL     0.1442
@<TRIPOS>BOND
     1    2    1 ar
     2    1    7 ar
     3    1   12 ar
     4    3    2 ar
     5    2    9 ar
     6   14    3 ar
     7    4    5 1 
     8    4    6 2 
     9    4   14 1 
    10    5   15 2 
    11    6   16 1 
    12    7    8 ar
    13    8   10 ar
    14    8   11 1 
    15    9   10 ar
    16   12   13 ar
    17   13   14 ar
    18   15   16 1 
    19   17   11 1 
    20   18   11 1 
@<TRIPOS>SUBSTRUCTURE
1 MOL         1
@<TRIPOS>MOLECULE
query molecule
   18    20     1     0     0
SMALL
NO_CHARGE

@<TRIPOS>ATOM
      1 C4         79.0772   42.2964   14.5177 C.ar      1 MOL     0.0725
      2 C5         77.8233   42.6927   14.0458 C.ar      1 MOL     0.0009
      3 C6         77.7353   43.6315   13.0176 C.ar      1 MOL     0.0187
      4 C7         78.8192   45.1306   11.4208 C.2       1 MOL    -0.0112
      5 C8         78.2440   44.8073   10.2273 C.2       1 MOL     0.0163
      6 C10        79.2410   46.4068   11.4817 C.2       1 MOL     0.0538
      7 N12        79.1839   41.3798   15.4932 N.ar      1 MOL    -0.2334
      8 C13        78.0916   40.8157   16.0512 C.ar      1 MOL     0.1153
      9 C15        76.6731   42.1339   14.6036 C.ar      1 MOL     0.0138
     10 C14        76.8093   41.1826   15.6220 C.ar      1 MOL     0.0445
     11 N16        78.2384   39.9223   17.0293 N.pl3     1 MOL    -0.3432
     12 C3         80.2306   42.8420   13.9558 C.ar      1 MOL     0.0295
     13 C2         80.1422   43.7873   12.9309 C.ar      1 MOL     0.0108
     14 C1         78.8939   44.2006   12.4634 C.ar      1 MOL    -0.0171
     15 C11        78.1840   45.7475    9.2711 C.2       1 MOL     0.0459
     16 S9         78.8817   47.1014    9.9643 S.3       1 MOL    -0.1054
     17 H161       78.3816   40.2328   17.9796 H         1 MOL     0.1442
     18 H162       78.2065   38.9347   16.8201 H         1 MOL     0.1442
@<TRIPOS>BOND
     1    2    1 ar
     2    1    7 ar
     3    1   12 ar
     4    3    2 ar
     5    2    9 ar
     6   14    3 ar
     7    4    5 1 
     8    4    6 2 
     9    4   14 1 
    10    5   15 2 
    11    6   16 1 
    12    7    8 ar
    13    8   10 ar
    14    8   11 1 
    15    9   10 ar
    16   12   13 ar
    17   13   14 ar
    18   15   16 1 
    19   17   11 1 
    20   18   11 1 
@<TRIPOS>SUBSTRUCTURE
1 MOL         1
@<TRIPOS>MOLECULE
query molecule
   18    20     1     0     0
SMALL
NO_CHARGE

@<TRIPOS>ATOM
      1 C4         62.0977   46.3322   12.3158 C.ar      1 MOL     0.0725
      2 C5         63.4727   46.1207   12.4448 C.ar      1 MOL     0.0009
      3 C6         64.0744   46.2229   13.6994 C.ar      1 MOL     0.0187
      4 C7         63.9059   46.6465   16.1001 C.2       1 MOL    -0.0112
      5 C8         65.0579   45.9772   16.3909 C.2       1 MOL     0.0163
      6 C10        63.4567   47.4028   17.1183 C.2       1 MOL     0.0538
      7 N12        61.4963   46.2195   11.1205 N.ar      1 MOL    -0.2334
      8 C13        62.1941   45.9040   10.0087 C.ar      1 MOL     0.1153
      9 C15        64.2256   45.7982   11.3154 C.ar      1 MOL     0.0138
     10 C14        63.5770   45.6896   10.0791 C.ar      1 MOL     0.0445
     11 N16        61.5638   45.8185    8.8374 N.pl3     1 MOL    -0.3432
     12 C3         61.3379   46.6425   13.4428 C.ar      1 MOL     0.0295
     13 C2         61.9417   46.7517   14.6979 C.ar      1 MOL     0.0108
     14 C1         63.3170   46.5573   14.8342 C.ar      1 MOL    -0.0171
     15 C11        65.5866   46.1169   17.6168 C.2       1 MOL     0.0459
     16 S9         64.5556   47.1741   18.4043 S.3       1 MOL    -0.1054
     17 H161       61.5033   44.9304    8.3601 H         1 MOL     0.1442
     18 H162       61.1467   46.6417    8.4271 H         1 MOL     0.1442
@<TRIPOS>BOND
     1    2    1 ar
     2    1    7 ar
     3    1   12 ar
     4    3    2 ar
     5    2    9 ar
     6   14    3 ar
     7    4    5 1 
     8    4    6 2 
     9    4   14 1 
    10    5   15 2 
    11    6   16 1 
    12    7    8 ar
    13    8   10 ar
    14    8   11 1 
    15    9   10 ar
    16   12   13 ar
    17   13   14 ar
    18   15   16 1 
    19   17   11 1 
    20   18   11 1 
@<TRIPOS>SUBSTRUCTURE
1 MOL         1
@<TRIPOS>MOLECULE
query molecule
   18    20     1     0     0
SMALL
NO_CHARGE

@<TRIPOS>ATOM
      1 C4         69.1465   49.9400    8.6110 C.ar      1 MOL     0.0725
      2 C5         69.5860   48.7985    9.2861 C.ar      1 MOL     0.0009
      3 C6         70.3136   48.9306   10.4691 C.ar      1 MOL     0.0187
      4 C7         71.3436   50.3458   12.1744 C.2       1 MOL    -0.0112
      5 C8         72.2474   49.4062   12.5743 C.2       1 MOL     0.0163
      6 C10        71.2655   51.3997   13.0072 C.2       1 MOL     0.0538
      7 N12        68.4283   49.8341    7.4813 N.ar      1 MOL    -0.2334
      8 C13        68.1110   48.6299    6.9596 C.ar      1 MOL     0.1153
      9 C15        69.2805   47.5380    8.7721 C.ar      1 MOL     0.0138
     10 C14        68.5333   47.4526    7.5909 C.ar      1 MOL     0.0445
     11 N16        67.4112   48.5665    5.8270 N.pl3     1 MOL    -0.3432
     12 C3         69.4379   51.2022    9.1262 C.ar      1 MOL     0.0295
     13 C2         70.1726   51.3346   10.3071 C.ar      1 MOL     0.0108
     14 C1         70.6289   50.2004   10.9804 C.ar      1 MOL    -0.0171
     15 C11        72.9171   49.6100   13.7196 C.2       1 MOL     0.0459
     16 S9         72.3622   51.0870   14.2773 S.3       1 MOL    -0.1054
     17 H161       66.4814   48.1722    5.8292 H         1 MOL     0.1442
     18 H162       67.8108   48.9127    4.9664 H         1 MOL     0.1442
@<TRIPOS>BOND
     1    2    1 ar
     2    1    7 ar
     3    1   12 ar
     4    3    2 ar
     5    2    9 ar
     6   14    3 ar
     7    4    5 1 
     8    4    6 2 
     9    4   14 1 
    10    5   15 2 
    11    6   16 1 
    12    7    8 ar
    13    8   10 ar
    14    8   11 1 
    15    9   10 ar
    16   12   13 ar
    17   13   14 ar
    18   15   16 1 
    19   17   11 1 
    20   18   11 1 
@<TRIPOS>SUBSTRUCTURE
1 MOL         1
@<TRIPOS>MOLECULE
query molecule
   18    20     1     0     0
SMALL
NO_CHARGE

@<TRIPOS>ATOM
      1 C4         71.2197   50.8137   11.6945 C.ar      1 MOL     0.0725
      2 C5         72.3442   49.9938   11.8169 C.ar      1 MOL     0.0009
      3 C6         72.9065   49.4150   10.6787 C.ar      1 MOL     0.0187
      4 C7         72.9068   49.0685    8.2598 C.2       1 MOL    -0.0112
      5 C8         74.2184   49.2715    7.9464 C.2       1 MOL     0.0163
      6 C10        72.2695   48.2616    7.3918 C.2       1 MOL     0.0538
      7 N12        70.6751   51.3958   12.7752 N.ar      1 MOL    -0.2334
      8 C13        71.1887   51.2077   14.0095 C.ar      1 MOL     0.1153
      9 C15        72.8978   49.7734   13.0783 C.ar      1 MOL     0.0138
     10 C14        72.3106   50.3883   14.1910 C.ar      1 MOL     0.0445
     11 N16        70.6092   51.7889   15.0597 N.pl3     1 MOL    -0.3432
     12 C3         70.6693   51.0478   10.4351 C.ar      1 MOL     0.0295
     13 C2         71.2283   50.4626    9.2963 C.ar      1 MOL     0.0108
     14 C1         72.3424   49.6298    9.4103 C.ar      1 MOL    -0.0171
     15 C11        74.7087   48.6912    6.8398 C.2       1 MOL     0.0459
     16 S9         73.4186   47.8361    6.2033 S.3       1 MOL    -0.1054
     17 H161       71.1056   52.4955   15.5835 H         1 MOL     0.1442
     18 H162       69.6737   51.5228   15.3316 H         1 MOL     0.1442
@<TRIPOS>BOND
     1    2    1 ar
     2    1    7 ar
     3    1   12 ar
     4    3    2 ar
     5    2    9 ar
     6   14    3 ar
     7    4    5 1 
     8    4    6 2 
     9    4   14 1 
    10    5   15 2 
    11    6   16 1 
    12    7    8 ar
    13    8   10 ar
    14    8   11 1 
    15    9   10 ar
    16   12   13 ar
    17   13   14 ar
    18   15   16 1 
    19   17   11 1 
    20   18   11 1 
@<TRIPOS>SUBSTRUCTURE
1 MOL         1
@<TRIPOS>MOLECULE
query molecule
   18    20     1     0     0
SMALL
NO_CHARGE

@<TRIPOS>ATOM
      1 C4         64.7614   46.9419   16.1655 C.ar      1 MOL     0.0725
      2 C5         63.9544   47.7550   15.3658 C.ar      1 MOL     0.0009
      3 C6         63.6103   49.0342   15.8037 C.ar      1 MOL     0.0187
      4 C7         63.7242   50.7953   17.4939 C.2       1 MOL    -0.0112
      5 C8         64.3925   51.8901   17.0308 C.2       1 MOL     0.0163
      6 C10        62.7320   51.0988   18.3506 C.2       1 MOL     0.0538
      7 N12        65.1198   45.7151   15.7535 N.ar      1 MOL    -0.2334
      8 C13        64.7130   45.2260   14.5628 C.ar      1 MOL     0.1153
      9 C15        63.5115   47.2792   14.1314 C.ar      1 MOL     0.0138
     10 C14        63.8953   45.9954   13.7246 C.ar      1 MOL     0.0445
     11 N16        65.0757   43.9966   14.1969 N.pl3     1 MOL    -0.3432
     12 C3         65.2174   47.4165   17.3945 C.ar      1 MOL     0.0295
     13 C2         64.8670   48.6948   17.8361 C.ar      1 MOL     0.0108
     14 C1         64.0487   49.5085   17.0511 C.ar      1 MOL    -0.0171
     15 C11        64.0234   53.1008   17.4775 C.2       1 MOL     0.0459
     16 S9         62.7484   52.7974   18.5181 S.3       1 MOL    -0.1054
     17 H161       65.1387   43.2622   14.8874 H         1 MOL     0.1442
     18 H162       65.2875   43.7996   13.2293 H         1 MOL     0.1442
@<TRIPOS>BOND
     1    2    1 ar
     2    1    7 ar
     3    1   12 ar
     4    3    2 ar
     5    2    9 ar
     6   14    3 ar
     7    4    5 1 
     8    4    6 2 
     9    4   14 1 
    10    5   15 2 
    11    6   16 1 
    12    7    8 ar
    13    8   10 ar
    14    8   11 1 
    15    9   10 ar
    16   12   13 ar
    17   13   14 ar
    18   15   16 1 
    19   17   11 1 
    20   18   11 1 
@<TRIPOS>SUBSTRUCTURE
1 MOL         1
@<TRIPOS>MOLECULE
query molecule
   18    20     1     0     0
SMALL
NO_CHARGE

@<TRIPOS>ATOM
      1 C4         67.0151   51.4229   11.3681 C.ar      1 MOL     0.0725
      2 C5         67.7081   50.4265   10.6761 C.ar      1 MOL     0.0009
      3 C6         69.0219   50.1214   11.0328 C.ar      1 MOL     0.0187
      4 C7         70.9771   50.5114   12.4459 C.2       1 MOL    -0.0112
      5 C8         71.4974   50.9657   13.6217 C.2       1 MOL     0.0163
      6 C10        71.8255   49.7294   11.7537 C.2       1 MOL     0.0538
      7 N12        65.7436   51.7183   11.0530 N.ar      1 MOL    -0.2334
      8 C13        65.0959   51.0705   10.0613 C.ar      1 MOL     0.1153
      9 C15        67.0709   49.7405    9.6418 C.ar      1 MOL     0.0138
     10 C14        65.7459   50.0683    9.3291 C.ar      1 MOL     0.0445
     11 N16        63.8395   51.4044    9.7670 N.pl3     1 MOL    -0.3432
     12 C3         67.6423   52.1034   12.4108 C.ar      1 MOL     0.0295
     13 C2         68.9603   51.8026   12.7634 C.ar      1 MOL     0.0108
     14 C1         69.6657   50.8194   12.0679 C.ar      1 MOL    -0.0171
     15 C11        72.7551   50.6212   13.9398 C.2       1 MOL     0.0459
     16 S9         73.2630   49.6551   12.6712 S.3       1 MOL    -0.1054
     17 H161       63.5481   52.3701    9.8192 H         1 MOL     0.1442
     18 H162       63.1788   50.6918    9.4919 H         1 MOL     0.1442
@<TRIPOS>BOND
     1    2    1 ar
     2    1    7 ar
     3    1   12 ar
     4    3    2 ar
     5    2    9 ar
     6   14    3 ar
     7    4    5 1 
     8    4    6 2 
     9    4   14 1 
    10    5   15 2 
    11    6   16 1 
    12    7    8 ar
    13    8   10 ar
    14    8   11 1 
    15    9   10 ar
    16   12   13 ar
    17   13   14 ar
    18   15   16 1 
    19   17   11 1 
    20   18   11 1 
@<TRIPOS>SUBSTRUCTURE
1 MOL         1
@<TRIPOS>MOLECULE
query molecule
   18    20     1     0     0
SMALL
NO_CHARGE

@<TRIPOS>ATOM
      1 C4         68.6520   50.1167    9.1283 C.ar      1 MOL     0.0725
      2 C5         69.4345   49.0040    9.4468 C.ar      1 MOL     0.0009
      3 C6         70.3026   49.0572   10.5377 C.ar      1 MOL     0.0187
      4 C7         71.2700   50.2855   12.4157 C.2       1 MOL    -0.0112
      5 C8         71.1492   51.2740   13.3474 C.2       1 MOL     0.0163
      6 C10        72.2348   49.3936   12.7060 C.2       1 MOL     0.0538
      7 N12        67.7962   50.0793    8.0941 N.ar      1 MOL    -0.2334
      8 C13        67.6654   48.9748    7.3288 C.ar      1 MOL     0.1153
      9 C15        69.3286   47.8476    8.6736 C.ar      1 MOL     0.0138
     10 C14        68.4319   47.8333    7.5982 C.ar      1 MOL     0.0445
     11 N16        66.8177   48.9827    6.3003 N.pl3     1 MOL    -0.3432
     12 C3         68.7443   51.2711    9.9046 C.ar      1 MOL     0.0295
     13 C2         69.6186   51.3266   10.9929 C.ar      1 MOL     0.0108
     14 C1         70.4155   50.2254   11.3095 C.ar      1 MOL    -0.0171
     15 C11        71.9851   51.2684   14.3975 C.2       1 MOL     0.0459
     16 S9         72.9431   49.9154   14.1688 S.3       1 MOL    -0.1054
     17 H161       66.7001   49.8208    5.7491 H         1 MOL     0.1442
     18 H162       66.2929   48.1504    6.0721 H         1 MOL     0.1442
@<TRIPOS>BOND
     1    2    1 ar
     2    1    7 ar
     3    1   12 ar
     4    3    2 ar
     5    2    9 ar
     6   14    3 ar
     7    4    5 1 
     8    4    6 2 
     9    4   14 1 
    10    5   15 2 
    11    6   16 1 
    12    7    8 ar
    13    8   10 ar
    14    8   11 1 
    15    9   10 ar
    16   12   13 ar
    17   13   14 ar
    18   15   16 1 
    19   17   11 1 
    20   18   11 1 
@<TRIPOS>SUBSTRUCTURE
1 MOL         1
@<TRIPOS>MOLECULE
query molecule
   18    20     1     0     0
SMALL
NO_CHARGE

@<TRIPOS>ATOM
      1 C4         76.6261   46.0565    8.6679 C.ar      1 MOL     0.0725
      2 C5         76.6572   46.7324    9.8902 C.ar      1 MOL     0.0009
      3 C6         75.6122   47.5905   10.2340 C.ar      1 MOL     0.0187
      4 C7         73.4745   48.6451    9.6957 C.2       1 MOL    -0.0112
      5 C8         73.0404   49.6127    8.8384 C.2       1 MOL     0.0163
      6 C10        72.7575   48.5783   10.8323 C.2       1 MOL     0.0538
      7 N12        77.6124   45.2115    8.3268 N.ar      1 MOL    -0.2334
      8 C13        78.6632   44.9897    9.1450 C.ar      1 MOL     0.1153
      9 C15        77.7309   46.5309   10.7578 C.ar      1 MOL     0.0138
     10 C14        78.7494   45.6476   10.3791 C.ar      1 MOL     0.0445
     11 N16        79.6311   44.1567    8.7631 N.pl3     1 MOL    -0.3432
     12 C3         75.5496   46.2443    7.8021 C.ar      1 MOL     0.0295
     13 C2         74.5066   47.1088    8.1433 C.ar      1 MOL     0.0108
     14 C1         74.5364   47.8001    9.3554 C.ar      1 MOL    -0.0171
     15 C11        72.0046   50.3802    9.2122 C.2       1 MOL     0.0459
     16 S9         71.5727   49.8023   10.7221 S.3       1 MOL    -0.1054
     17 H161       80.5991   44.4122    8.8966 H         1 MOL     0.1442
     18 H162       79.3965   43.2700    8.3402 H         1 MOL     0.1442
@<TRIPOS>BOND
     1    2    1 ar
     2    1    7 ar
     3    1   12 ar
     4    3    2 ar
     5    2    9 ar
     6   14    3 ar
     7    4    5 1 
     8    4    6 2 
     9    4   14 1 
    10    5   15 2 
    11    6   16 1 
    12    7    8 ar
    13    8   10 ar
    14    8   11 1 
    15    9   10 ar
    16   12   13 ar
    17   13   14 ar
    18   15   16 1 
    19   17   11 1 
    20   18   11 1 
@<TRIPOS>SUBSTRUCTURE
1 MOL         1
@<TRIPOS>MOLECULE
query molecule
   18    20     1     0     0
SMALL
NO_CHARGE

@<TRIPOS>ATOM
      1 C4         68.5435   50.4232    8.6960 C.ar      1 MOL     0.0725
      2 C5         68.6551   49.4277    9.6699 C.ar      1 MOL     0.0009
      3 C6         69.2241   49.7300   10.9073 C.ar      1 MOL     0.0187
      4 C7         70.2642   51.3405   12.4226 C.2       1 MOL    -0.0112
      5 C8         71.4760   51.9593   12.5138 C.2       1 MOL     0.0163
      6 C10        69.6809   51.1307   13.6169 C.2       1 MOL     0.0538
      7 N12        67.9813   50.1575    7.5058 N.ar      1 MOL    -0.2334
      8 C13        67.5110   48.9274    7.2087 C.ar      1 MOL     0.1153
      9 C15        68.1842   48.1436    9.3946 C.ar      1 MOL     0.0138
     10 C14        67.6050   47.8895    8.1453 C.ar      1 MOL     0.0445
     11 N16        66.9754   48.6987    6.0098 N.pl3     1 MOL    -0.3432
     12 C3         69.0008   51.7114    8.9697 C.ar      1 MOL     0.0295
     13 C2         69.5770   52.0124   10.2063 C.ar      1 MOL     0.0108
     14 C1         69.7067   51.0208   11.1799 C.ar      1 MOL    -0.0171
     15 C11        71.9508   52.2586   13.7331 C.2       1 MOL     0.0459
     16 S9         70.7643   51.7338   14.7900 S.3       1 MOL    -0.1054
     17 H161       67.2159   47.8601    5.5008 H         1 MOL     0.1442
     18 H162       66.3291   49.3641    5.6103 H         1 MOL     0.1442
@<TRIPOS>BOND
     1    2    1 ar
     2    1    7 ar
     3    1   12 ar
     4    3    2 ar
     5    2    9 ar
     6   14    3 ar
     7    4    5 1 
     8    4    6 2 
     9    4   14 1 
    10    5   15 2 
    11    6   16 1 
    12    7    8 ar
    13    8   10 ar
    14    8   11 1 
    15    9   10 ar
    16   12   13 ar
    17   13   14 ar
    18   15   16 1 
    19   17   11 1 
    20   18   11 1 
@<TRIPOS>SUBSTRUCTURE
1 MOL         1
@<TRIPOS>MOLECULE
query molecule
   18    20     1     0     0
SMALL
NO_CHARGE

@<TRIPOS>ATOM
      1 C4         67.7150   50.7573    9.1879 C.ar      1 MOL     0.0725
      2 C5         67.0701   50.5827   10.4149 C.ar      1 MOL     0.0009
      3 C6         66.0076   49.6842   10.5173 C.ar      1 MOL     0.0187
      4 C7         64.5100   48.0504    9.4881 C.2       1 MOL    -0.0112
      5 C8         63.7982   47.6790    8.3858 C.2       1 MOL     0.0163
      6 C10        64.1215   47.4199   10.6116 C.2       1 MOL     0.0538
      7 N12        68.7519   51.6027    9.0730 N.ar      1 MOL    -0.2334
      8 C13        69.2023   52.3115   10.1301 C.ar      1 MOL     0.1153
      9 C15        67.5060   51.3033   11.5271 C.ar      1 MOL     0.0138
     10 C14        68.5870   52.1815   11.3822 C.ar      1 MOL     0.0445
     11 N16        70.2232   53.1537    9.9718 N.pl3     1 MOL    -0.3432
     12 C3         67.2920   50.0307    8.0758 C.ar      1 MOL     0.0295
     13 C2         66.2236   49.1362    8.1767 C.ar      1 MOL     0.0108
     14 C1         65.5633   48.9664    9.3945 C.ar      1 MOL    -0.0171
     15 C11        62.8113   46.7814    8.5345 C.2       1 MOL     0.0459
     16 S9         62.8313   46.3962   10.1630 S.3       1 MOL    -0.1054
     17 H161       70.1852   54.0761   10.3814 H         1 MOL     0.1442
     18 H162       71.0349   52.8693    9.4422 H         1 MOL     0.1442
@<TRIPOS>BOND
     1    2    1 ar
     2    1    7 ar
     3    1   12 ar
     4    3    2 ar
     5    2    9 ar
     6   14    3 ar
     7    4    5 1 
     8    4    6 2 
     9    4   14 1 
    10    5   15 2 
    11    6   16 1 
    12    7    8 ar
    13    8   10 ar
    14    8   11 1 
    15    9   10 ar
    16   12   13 ar
    17   13   14 ar
    18   15   16 1 
    19   17   11 1 
    20   18   11 1 
@<TRIPOS>SUBSTRUCTURE
1 MOL         1
@<TRIPOS>MOLECULE
query molecule
   18    20     1     0     0
SMALL
NO_CHARGE

@<TRIPOS>ATOM
      1 C4         65.0450   48.0828   18.5128 C.ar      1 MOL     0.0725
      2 C5         64.9183   48.8823   19.6515 C.ar      1 MOL     0.0009
      3 C6         64.3461   50.1505   19.5473 C.ar      1 MOL     0.0187
      4 C7         63.3231   51.9066   18.1905 C.2       1 MOL    -0.0112
      5 C8         64.0364   52.9810   17.7473 C.2       1 MOL     0.0163
      6 C10        62.0327   52.1908   18.4447 C.2       1 MOL     0.0538
      7 N12        65.5752   46.8519   18.5952 N.ar      1 MOL    -0.2334
      8 C13        66.0050   46.3483   19.7718 C.ar      1 MOL     0.1153
      9 C15        65.3571   48.3955   20.8831 C.ar      1 MOL     0.0138
     10 C14        65.9097   47.1103   20.9438 C.ar      1 MOL     0.0445
     11 N16        66.5414   45.1287   19.8098 N.pl3     1 MOL    -0.3432
     12 C3         64.5970   48.5589   17.2813 C.ar      1 MOL     0.0295
     13 C2         64.0303   49.8315   17.1758 C.ar      1 MOL     0.0108
     14 C1         63.9136   50.6434   18.3051 C.ar      1 MOL    -0.0171
     15 C11        63.4106   54.1636   17.6397 C.2       1 MOL     0.0459
     16 S9         61.8354   53.8534   18.1119 S.3       1 MOL    -0.1054
     17 H161       66.7563   44.6446   18.9499 H         1 MOL     0.1442
     18 H162       66.7330   44.6888   20.6985 H         1 MOL     0.1442
@<TRIPOS>BOND
     1    2    1 ar
     2    1    7 ar
     3    1   12 ar
     4    3    2 ar
     5    2    9 ar
     6   14    3 ar
     7    4    5 1 
     8    4    6 2 
     9    4   14 1 
    10    5   15 2 
    11    6   16 1 
    12    7    8 ar
    13    8   10 ar
    14    8   11 1 
    15    9   10 ar
    16   12   13 ar
    17   13   14 ar
    18   15   16 1 
    19   17   11 1 
    20   18   11 1 
@<TRIPOS>SUBSTRUCTURE
1 MOL         1
@<TRIPOS>MOLECULE
query molecule
   18    20     1     0     0
SMALL
NO_CHARGE

@<TRIPOS>ATOM
      1 C4         66.2975   48.2249    7.9500 C.ar      1 MOL     0.0725
      2 C5         65.8221   48.5631    9.2195 C.ar      1 MOL     0.0009
      3 C6         66.4675   49.5545    9.9592 C.ar      1 MOL     0.0187
      4 C7         68.2506   51.2112   10.1765 C.2       1 MOL    -0.0112
      5 C8         69.4523   50.9855   10.7805 C.2       1 MOL     0.0163
      6 C10        67.8107   52.4748   10.3189 C.2       1 MOL     0.0538
      7 N12        65.6792   47.2872    7.2141 N.ar      1 MOL    -0.2334
      8 C13        64.5866   46.6402    7.6728 C.ar      1 MOL     0.1153
      9 C15        64.6983   47.9105    9.7268 C.ar      1 MOL     0.0138
     10 C14        64.0723   46.9339    8.9426 C.ar      1 MOL     0.0445
     11 N16        64.0111   45.7033    6.9194 N.pl3     1 MOL    -0.3432
     12 C3         67.4128   48.8822    7.4324 C.ar      1 MOL     0.0295
     13 C2         68.0631   49.8700    8.1761 C.ar      1 MOL     0.0108
     14 C1         67.6047   50.2040    9.4514 C.ar      1 MOL    -0.0171
     15 C11        70.0332   51.9962   11.4459 C.2       1 MOL     0.0459
     16 S9         68.9844   53.2863   11.2558 S.3       1 MOL    -0.1054
     17 H161       64.4688   45.3792    6.0794 H         1 MOL     0.1442
     18 H162       63.1174   45.3174    7.1885 H         1 MOL     0.1442
@<TRIPOS>BOND
     1    2    1 ar
     2    1    7 ar
     3    1   12 ar
     4    3    2 ar
     5    2    9 ar
     6   14    3 ar
     7    4    5 1 
     8    4    6 2 
     9    4   14 1 
    10    5   15 2 
    11    6   16 1 
    12    7    8 ar
    13    8   10 ar
    14    8   11 1 
    15    9   10 ar
    16   12   13 ar
    17   13   14 ar
    18   15   16 1 
    19   17   11 1 
    20   18   11 1 
@<TRIPOS>SUBSTRUCTURE
1 MOL         1
@<TRIPOS>MOLECULE
query molecule
   18    20     1     0     0
SMALL
NO_CHARGE

@<TRIPOS>ATOM
      1 C4         67.1289   49.9179    8.9399 C.ar      1 MOL     0.0725
      2 C5         66.4583   49.8094   10.1608 C.ar      1 MOL     0.0009
      3 C6         65.5085   48.8036   10.3423 C.ar      1 MOL     0.0187
      4 C7         64.2637   46.8864    9.4787 C.2       1 MOL    -0.0112
      5 C8         63.0381   46.9438    8.8834 C.2       1 MOL     0.0163
      6 C10        64.4634   45.7561   10.1809 C.2       1 MOL     0.0538
      7 N12        68.0603   50.8667    8.7517 N.ar      1 MOL    -0.2334
      8 C13        68.3766   51.7453    9.7267 C.ar      1 MOL     0.1153
      9 C15        66.7566   50.7043   11.1886 C.ar      1 MOL     0.0138
     10 C14        67.7290   51.6874   10.9678 C.ar      1 MOL     0.0445
     11 N16        69.2944   52.6838    9.4953 N.pl3     1 MOL    -0.3432
     12 C3         66.8440   49.0188    7.9132 C.ar      1 MOL     0.0295
     13 C2         65.8880   48.0160    8.0927 C.ar      1 MOL     0.0108
     14 C1         65.2020   47.9093    9.3034 C.ar      1 MOL    -0.0171
     15 C11        62.1871   45.9232    9.0724 C.2       1 MOL     0.0459
     16 S9         63.0259   44.8464   10.0405 S.3       1 MOL    -0.1054
     17 H161       69.6445   52.8279    8.5590 H         1 MOL     0.1442
     18 H162       69.6398   53.2509   10.2564 H         1 MOL     0.1442
@<TRIPOS>BOND
     1    2    1 ar
     2    1    7 ar
     3    1   12 ar
     4    3    2 ar
     5    2    9 ar
     6   14    3 ar
     7    4    5 1 
     8    4    6 2 
     9    4   14 1 
    10    5   15 2 
    11    6   16 1 
    12    7    8 ar
    13    8   10 ar
    14    8   11 1 
    15    9   10 ar
    16   12   13 ar
    17   13   14 ar
    18   15   16 1 
    19   17   11 1 
    20   18   11 1 
@<TRIPOS>SUBSTRUCTURE
1 MOL         1
@<TRIPOS>MOLECULE
query molecule
   18    20     1     0     0
SMALL
NO_CHARGE

@<TRIPOS>ATOM
      1 C4         69.3458   50.5069   11.4453 C.ar      1 MOL     0.0725
      2 C5         70.5711   50.7510   12.0706 C.ar      1 MOL     0.0009
      3 C6         71.7603   50.4657   11.3992 C.ar      1 MOL     0.0187
      4 C7         72.9270   49.6402    9.4171 C.2       1 MOL    -0.0112
      5 C8         73.7903   48.6789    9.8533 C.2       1 MOL     0.0163
      6 C10        73.3170   50.2274    8.2709 C.2       1 MOL     0.0538
      7 N12        68.1903   50.7926   12.0668 N.ar      1 MOL    -0.2334
      8 C13        68.1715   51.3183   13.3102 C.ar      1 MOL     0.1153
      9 C15        70.5886   51.2888   13.3578 C.ar      1 MOL     0.0138
     10 C14        69.3710   51.5754   13.9872 C.ar      1 MOL     0.0445
     11 N16        67.0037   51.5720   13.9006 N.pl3     1 MOL    -0.3432
     12 C3         69.3219   49.9812   10.1543 C.ar      1 MOL     0.0295
     13 C2         70.5128   49.6890    9.4847 C.ar      1 MOL     0.0108
     14 C1         71.7413   49.9152   10.1070 C.ar      1 MOL    -0.0171
     15 C11        74.9025   48.4465    9.1388 C.2       1 MOL     0.0459
     16 S9         74.8031   49.5033    7.8451 S.3       1 MOL    -0.1054
     17 H161       66.3615   52.2326   13.4866 H         1 MOL     0.1442
     18 H162       66.7610   51.1037   14.7618 H         1 MOL     0.1442
@<TRIPOS>BOND
     1    2    1 ar
     2    1    7 ar
     3    1   12 ar
     4    3    2 ar
     5    2    9 ar
     6   14    3 ar
     7    4    5 1 
     8    4    6 2 
     9    4   14 1 
    10    5   15 2 
    11    6   16 1 
    12    7    8 ar
    13    8   10 ar
    14    8   11 1 
    15    9   10 ar
    16   12   13 ar
    17   13   14 ar
    18   15   16 1 
    19   17   11 1 
    20   18   11 1 
@<TRIPOS>SUBSTRUCTURE
1 MOL         1
@<TRIPOS>MOLECULE
query molecule
   18    20     1     0     0
SMALL
NO_CHARGE

@<TRIPOS>ATOM
      1 C4         69.1112   49.9577    8.5336 C.ar      1 MOL     0.0725
      2 C5         69.3646   48.8400    9.3327 C.ar      1 MOL     0.0009
      3 C6         70.0324   48.9944   10.5479 C.ar      1 MOL     0.0187
      4 C7         71.1289   50.4298   12.1936 C.2       1 MOL    -0.0112
      5 C8         72.2553   49.7224   12.4945 C.2       1 MOL     0.0163
      6 C10        70.7741   51.3023   13.1546 C.2       1 MOL     0.0538
      7 N12        68.4529   49.8331    7.3699 N.ar      1 MOL    -0.2334
      8 C13        68.0191   48.6319    6.9321 C.ar      1 MOL     0.1153
      9 C15        68.9351   47.5824    8.9082 C.ar      1 MOL     0.0138
     10 C14        68.2536   47.4767    7.6895 C.ar      1 MOL     0.0445
     11 N16        67.3845   48.5468    5.7630 N.pl3     1 MOL    -0.3432
     12 C3         69.5270   51.2189    8.9583 C.ar      1 MOL     0.0295
     13 C2         70.2018   51.3724   10.1719 C.ar      1 MOL     0.0108
     14 C1         70.4729   50.2598   10.9696 C.ar      1 MOL    -0.0171
     15 C11        72.8519   49.9427   13.6766 C.2       1 MOL     0.0459
     16 S9         71.9221   51.1277   14.4058 S.3       1 MOL    -0.1054
     17 H161       66.5149   49.0410    5.6233 H         1 MOL     0.1442
     18 H162       67.7733   47.9880    5.0169 H         1 MOL     0.1442
@<TRIPOS>BOND
     1    2    1 ar
     2    1    7 ar
     3    1   12 ar
     4    3    2 ar
     5    2    9 ar
     6   14    3 ar
     7    4    5 1 
     8    4    6 2 
     9    4   14 1 
    10    5   15 2 
    11    6   16 1 
    12    7    8 ar
    13    8   10 ar
    14    8   11 1 
    15    9   10 ar
    16   12   13 ar
    17   13   14 ar
    18   15   16 1 
    19   17   11 1 
    20   18   11 1 
@<TRIPOS>SUBSTRUCTURE
1 MOL         1
@<TRIPOS>MOLECULE
query molecule
   18    20     1     0     0
SMALL
NO_CHARGE

@<TRIPOS>ATOM
      1 C4         63.9398   47.7911   10.1252 C.ar      1 MOL     0.0725
      2 C5         63.7249   46.4229   10.3090 C.ar      1 MOL     0.0009
      3 C6         63.6508   45.9009   11.6008 C.ar      1 MOL     0.0187
      4 C7         63.7220   46.2235   14.0220 C.2       1 MOL    -0.0112
      5 C8         64.8187   45.7241   14.6603 C.2       1 MOL     0.0163
      6 C10        62.6107   46.2097   14.7804 C.2       1 MOL     0.0538
      7 N12        63.9950   48.3162    8.8905 N.ar      1 MOL    -0.2334
      8 C13        63.8497   47.5460    7.7912 C.ar      1 MOL     0.1153
      9 C15        63.5758   45.5966    9.1949 C.ar      1 MOL     0.0138
     10 C14        63.6405   46.1664    7.9174 C.ar      1 MOL     0.0445
     11 N16        63.9281   48.1020    6.5823 N.pl3     1 MOL    -0.3432
     12 C3         64.0772   48.6239   11.2348 C.ar      1 MOL     0.0295
     13 C2         64.0099   48.1000   12.5282 C.ar      1 MOL     0.0108
     14 C1         63.8108   46.7322   12.7217 C.ar      1 MOL    -0.0171
     15 C11        64.6759   45.2678   15.9146 C.2       1 MOL     0.0459
     16 S9         63.0616   45.5212   16.2759 S.3       1 MOL    -0.1054
     17 H161       63.2672   48.8158    6.3109 H         1 MOL     0.1442
     18 H162       64.6486   47.8094    5.9378 H         1 MOL     0.1442
@<TRIPOS>BOND
     1    2    1 ar
     2    1    7 ar
     3    1   12 ar
     4    3    2 ar
     5    2    9 ar
     6   14    3 ar
     7    4    5 1 
     8    4    6 2 
     9    4   14 1 
    10    5   15 2 
    11    6   16 1 
    12    7    8 ar
    13    8   10 ar
    14    8   11 1 
    15    9   10 ar
    16   12   13 ar
    17   13   14 ar
    18   15   16 1 
    19   17   11 1 
    20   18   11 1 
@<TRIPOS>SUBSTRUCTURE
1 MOL         1
@<TRIPOS>MOLECULE
query molecule
   18    20     1     0     0
SMALL
NO_CHARGE

@<TRIPOS>ATOM
      1 C4         69.3102   50.8728   12.3812 C.ar      1 MOL     0.0725
      2 C5         68.7834   50.4825   11.1474 C.ar      1 MOL     0.0009
      3 C6         69.6440   50.1529   10.0999 C.ar      1 MOL     0.0187
      4 C7         71.9104   49.8850    9.2263 C.2       1 MOL    -0.0112
      5 C8         72.2940   48.5917    9.0266 C.2       1 MOL     0.0163
      6 C10        72.4148   50.7378    8.3159 C.2       1 MOL     0.0538
      7 N12        68.4992   51.1753   13.4078 N.ar      1 MOL    -0.2334
      8 C13        67.1560   51.1172   13.2840 C.ar      1 MOL     0.1153
      9 C15        67.3996   50.4167   10.9829 C.ar      1 MOL     0.0138
     10 C14        66.5740   50.7401   12.0666 C.ar      1 MOL     0.0445
     11 N16        66.3843   51.4420   14.3212 N.pl3     1 MOL    -0.3432
     12 C3         70.6923   50.9284   12.5555 C.ar      1 MOL     0.0295
     13 C2         71.5540   50.6051   11.5044 C.ar      1 MOL     0.0108
     14 C1         71.0370   50.2288   10.2638 C.ar      1 MOL    -0.0171
     15 C11        73.1184   48.3201    8.0028 C.2       1 MOL     0.0459
     16 S9         73.3810   49.7999    7.2668 S.3       1 MOL    -0.1054
     17 H161       66.8045   51.7504   15.1863 H         1 MOL     0.1442
     18 H162       65.3794   51.3797   14.2419 H         1 MOL     0.1442
@<TRIPOS>BOND
     1    2    1 ar
     2    1    7 ar
     3    1   12 ar
     4    3    2 ar
     5    2    9 ar
     6   14    3 ar
     7    4    5 1 
     8    4    6 2 
     9    4   14 1 
    10    5   15 2 
    11    6   16 1 
    12    7    8 ar
    13    8   10 ar
    14    8   11 1 
    15    9   10 ar
    16   12   13 ar
    17   13   14 ar
    18   15   16 1 
    19   17   11 1 
    20   18   11 1 
@<TRIPOS>SUBSTRUCTURE
1 MOL         1
@<TRIPOS>MOLECULE
query molecule
   18    20     1     0     0
SMALL
NO_CHARGE

@<TRIPOS>ATOM
      1 C4         69.4689   51.0675   11.9074 C.ar      1 MOL     0.0725
      2 C5         70.2444   50.0261   11.3917 C.ar      1 MOL     0.0009
      3 C6         69.7980   49.3170   10.2761 C.ar      1 MOL     0.0187
      4 C7         68.1149   48.9310    8.5471 C.2       1 MOL    -0.0112
      5 C8         68.8258   48.9404    7.3833 C.2       1 MOL     0.0163
      6 C10        67.0063   48.1705    8.4891 C.2       1 MOL     0.0538
      7 N12        69.8898   51.7749   12.9683 N.ar      1 MOL    -0.2334
      8 C13        71.0666   51.5044   13.5723 C.ar      1 MOL     0.1153
      9 C15        71.4637   49.7159   11.9945 C.ar      1 MOL     0.0138
     10 C14        71.8802   50.4652   13.1018 C.ar      1 MOL     0.0445
     11 N16        71.4416   52.2179   14.6338 N.pl3     1 MOL    -0.3432
     12 C3         68.2553   51.3904   11.3017 C.ar      1 MOL     0.0295
     13 C2         67.8051   50.6757   10.1889 C.ar      1 MOL     0.0108
     14 C1         68.5656   49.6238    9.6760 C.ar      1 MOL    -0.0171
     15 C11        68.3531   48.2410    6.3397 C.2       1 MOL     0.0459
     16 S9         66.9472   47.5323    6.9070 S.3       1 MOL    -0.1054
     17 H161       70.8367   52.9414   14.9952 H         1 MOL     0.1442
     18 H162       72.3307   52.0350   15.0767 H         1 MOL     0.1442
@<TRIPOS>BOND
     1    2    1 ar
     2    1    7 ar
     3    1   12 ar
     4    3    2 ar
     5    2    9 ar
     6   14    3 ar
     7    4    5 1 
     8    4    6 2 
     9    4   14 1 
    10    5   15 2 
    11    6   16 1 
    12    7    8 ar
    13    8   10 ar
    14    8   11 1 
    15    9   10 ar
    16   12   13 ar
    17   13   14 ar
    18   15   16 1 
    19   17   11 1 
    20   18   11 1 
@<TRIPOS>SUBSTRUCTURE
1 MOL         1
@<TRIPOS>MOLECULE
query molecule
   18    20     1     0     0
SMALL
NO_CHARGE

@<TRIPOS>ATOM
      1 C4         67.0212   50.0146   10.3886 C.ar      1 MOL     0.0725
      2 C5         67.1607   49.0531    9.3846 C.ar      1 MOL     0.0009
      3 C6         66.1431   48.1231    9.1699 C.ar      1 MOL     0.0187
      4 C7         63.9515   47.2111    9.7501 C.2       1 MOL    -0.0112
      5 C8         63.4903   46.9517    8.4933 C.2       1 MOL     0.0163
      6 C10        63.3489   46.4755   10.7021 C.2       1 MOL     0.0538
      7 N12        67.9804   50.9305   10.5984 N.ar      1 MOL    -0.2334
      8 C13        69.1070   50.9525    9.8547 C.ar      1 MOL     0.1153
      9 C15        68.3146   49.0433    8.6005 C.ar      1 MOL     0.0138
     10 C14        69.3027   50.0062    8.8400 C.ar      1 MOL     0.0445
     11 N16        70.0439   51.8669   10.1050 N.pl3     1 MOL    -0.3432
     12 C3         65.8649   50.0372   11.1672 C.ar      1 MOL     0.0295
     13 C2         64.8490   49.1015   10.9568 C.ar      1 MOL     0.0108
     14 C1         64.9861   48.1278    9.9664 C.ar      1 MOL    -0.0171
     15 C11        62.5090   46.0477    8.3462 C.2       1 MOL     0.0459
     16 S9         62.1971   45.5054    9.8984 S.3       1 MOL    -0.1054
     17 H161       69.9186   52.5242   10.8615 H         1 MOL     0.1442
     18 H162       70.8791   51.9024    9.5382 H         1 MOL     0.1442
@<TRIPOS>BOND
     1    2    1 ar
     2    1    7 ar
     3    1   12 ar
     4    3    2 ar
     5    2    9 ar
     6   14    3 ar
     7    4    5 1 
     8    4    6 2 
     9    4   14 1 
    10    5   15 2 
    11    6   16 1 
    12    7    8 ar
    13    8   10 ar
    14    8   11 1 
    15    9   10 ar
    16   12   13 ar
    17   13   14 ar
    18   15   16 1 
    19   17   11 1 
    20   18   11 1 
@<TRIPOS>SUBSTRUCTURE
1 MOL         1
@<TRIPOS>MOLECULE
query molecule
   18    20     1     0     0
SMALL
NO_CHARGE

@<TRIPOS>ATOM
      1 C4         69.1557   47.7181    8.3888 C.ar      1 MOL     0.0725
      2 C5         68.4201   47.1030    7.3727 C.ar      1 MOL     0.0009
      3 C6         68.5950   45.7427    7.1171 C.ar      1 MOL     0.0187
      4 C7         69.6915   43.6177    7.6208 C.2       1 MOL    -0.0112
      5 C8         70.7297   43.1573    6.8659 C.2       1 MOL     0.0163
      6 C10        68.9212   42.6360    8.1242 C.2       1 MOL     0.0538
      7 N12        68.9879   49.0217    8.6634 N.ar      1 MOL    -0.2334
      8 C13        68.1118   49.7797    7.9700 C.ar      1 MOL     0.1153
      9 C15        67.5096   47.8578    6.6326 C.ar      1 MOL     0.0138
     10 C14        67.3543   49.2162    6.9348 C.ar      1 MOL     0.0445
     11 N16        67.9864   51.0744    8.2611 N.pl3     1 MOL    -0.3432
     12 C3         70.0581   46.9664    9.1401 C.ar      1 MOL     0.0295
     13 C2         70.2383   45.6057    8.8795 C.ar      1 MOL     0.0108
     14 C1         69.5191   44.9860    7.8565 C.ar      1 MOL    -0.0171
     15 C11        70.8546   41.8324    6.6908 C.2       1 MOL     0.0459
     16 S9         69.5872   41.1692    7.5594 S.3       1 MOL    -0.1054
     17 H161       67.0691   51.4759    8.3927 H         1 MOL     0.1442
     18 H162       68.8088   51.6539    8.3501 H         1 MOL     0.1442
@<TRIPOS>BOND
     1    2    1 ar
     2    1    7 ar
     3    1   12 ar
     4    3    2 ar
     5    2    9 ar
     6   14    3 ar
     7    4    5 1 
     8    4    6 2 
     9    4   14 1 
    10    5   15 2 
    11    6   16 1 
    12    7    8 ar
    13    8   10 ar
    14    8   11 1 
    15    9   10 ar
    16   12   13 ar
    17   13   14 ar
    18   15   16 1 
    19   17   11 1 
    20   18   11 1 
@<TRIPOS>SUBSTRUCTURE
1 MOL         1
@<TRIPOS>MOLECULE
query molecule
   18    20     1     0     0
SMALL
NO_CHARGE

@<TRIPOS>ATOM
      1 C4         69.3169   51.9480   11.9040 C.ar      1 MOL     0.0725
      2 C5         68.3286   51.6939   12.8582 C.ar      1 MOL     0.0009
      3 C6         67.0128   51.4725   12.4506 C.ar      1 MOL     0.0187
      4 C7         65.3515   51.2858   10.6682 C.2       1 MOL    -0.0112
      5 C8         65.0149   50.1311   10.0256 C.2       1 MOL     0.0163
      6 C10        64.3049   52.1054   10.8763 C.2       1 MOL     0.0538
      7 N12        70.5926   52.1445   12.2742 N.ar      1 MOL    -0.2334
      8 C13        70.9621   52.1077   13.5722 C.ar      1 MOL     0.1153
      9 C15        68.6744   51.6541   14.2092 C.ar      1 MOL     0.0138
     10 C14        70.0104   51.8653   14.5715 C.ar      1 MOL     0.0445
     11 N16        72.2354   52.3249   13.9011 N.pl3     1 MOL    -0.3432
     12 C3         68.9799   51.9768   10.5514 C.ar      1 MOL     0.0295
     13 C2         67.6610   51.7620   10.1438 C.ar      1 MOL     0.0108
     14 C1         66.6641   51.5226   11.0908 C.ar      1 MOL    -0.0171
     15 C11        63.7355   49.9517    9.6614 C.2       1 MOL     0.0459
     16 S9         62.9462   51.3269   10.1967 S.3       1 MOL    -0.1054
     17 H161       72.7089   51.6939   14.5317 H         1 MOL     0.1442
     18 H162       72.7268   53.1206   13.5197 H         1 MOL     0.1442
@<TRIPOS>BOND
     1    2    1 ar
     2    1    7 ar
     3    1   12 ar
     4    3    2 ar
     5    2    9 ar
     6   14    3 ar
     7    4    5 1 
     8    4    6 2 
     9    4   14 1 
    10    5   15 2 
    11    6   16 1 
    12    7    8 ar
    13    8   10 ar
    14    8   11 1 
    15    9   10 ar
    16   12   13 ar
    17   13   14 ar
    18   15   16 1 
    19   17   11 1 
    20   18   11 1 
@<TRIPOS>SUBSTRUCTURE
1 MOL         1
@<TRIPOS>MOLECULE
query molecule
   18    20     1     0     0
SMALL
NO_CHARGE

@<TRIPOS>ATOM
      1 C4         64.5534   47.3251   15.8607 C.ar      1 MOL     0.0725
      2 C5         64.1001   48.3773   15.0611 C.ar      1 MOL     0.0009
      3 C6         63.9323   49.6463   15.6160 C.ar      1 MOL     0.0187
      4 C7         64.0455   51.1471   17.5412 C.2       1 MOL    -0.0112
      5 C8         63.6291   51.3024   18.8304 C.2       1 MOL     0.0163
      6 C10        64.3270   52.3110   16.9274 C.2       1 MOL     0.0538
      7 N12        64.7400   46.1009   15.3413 N.ar      1 MOL    -0.2334
      8 C13        64.4942   45.8443   14.0388 C.ar      1 MOL     0.1153
      9 C15        63.8312   48.1462   13.7118 C.ar      1 MOL     0.0138
     10 C14        64.0299   46.8606   13.1935 C.ar      1 MOL     0.0445
     11 N16        64.6751   44.6118   13.5647 N.pl3     1 MOL    -0.3432
     12 C3         64.8357   47.5526   17.2069 C.ar      1 MOL     0.0295
     13 C2         64.6610   48.8218   17.7641 C.ar      1 MOL     0.0108
     14 C1         64.1940   49.8755   16.9769 C.ar      1 MOL    -0.0171
     15 C11        63.5241   52.5467   19.3229 C.2       1 MOL     0.0459
     16 S9         64.0066   53.5413   18.0665 S.3       1 MOL    -0.1054
     17 H161       65.1993   44.4701   12.7132 H         1 MOL     0.1442
     18 H162       64.2879   43.8195   14.0571 H         1 MOL     0.1442
@<TRIPOS>BOND
     1    2    1 ar
     2    1    7 ar
     3    1   12 ar
     4    3    2 ar
     5    2    9 ar
     6   14    3 ar
     7    4    5 1 
     8    4    6 2 
     9    4   14 1 
    10    5   15 2 
    11    6   16 1 
    12    7    8 ar
    13    8   10 ar
    14    8   11 1 
    15    9   10 ar
    16   12   13 ar
    17   13   14 ar
    18   15   16 1 
    19   17   11 1 
    20   18   11 1 
@<TRIPOS>SUBSTRUCTURE
1 MOL         1
@<TRIPOS>MOLECULE
query molecule
   18    20     1     0     0
SMALL
NO_CHARGE

@<TRIPOS>ATOM
      1 C4         64.4586   47.2080   16.9817 C.ar      1 MOL     0.0725
      2 C5         63.6185   47.9129   16.1161 C.ar      1 MOL     0.0009
      3 C6         63.3765   49.2690   16.3375 C.ar      1 MOL     0.0187
      4 C7         63.7297   51.2948   17.6577 C.2       1 MOL    -0.0112
      5 C8         64.4684   52.2440   17.0150 C.2       1 MOL     0.0163
      6 C10        62.7772   51.8100   18.4562 C.2       1 MOL     0.0538
      7 N12        64.7197   45.9071   16.7750 N.ar      1 MOL    -0.2334
      8 C13        64.1808   45.2383   15.7334 C.ar      1 MOL     0.1153
      9 C15        63.0403   47.2515   15.0324 C.ar      1 MOL     0.0138
     10 C14        63.3245   45.8941   14.8390 C.ar      1 MOL     0.0445
     11 N16        64.4504   43.9430   15.5719 N.pl3     1 MOL    -0.3432
     12 C3         65.0493   47.8664   18.0594 C.ar      1 MOL     0.0295
     13 C2         64.8013   49.2227   18.2850 C.ar      1 MOL     0.0108
     14 C1         63.9515   49.9315   17.4345 C.ar      1 MOL    -0.0171
     15 C11        64.1967   53.5364   17.2548 C.2       1 MOL     0.0459
     16 S9         62.9209   53.5068   18.3374 S.3       1 MOL    -0.1054
     17 H161       65.2192   43.5208   16.0727 H         1 MOL     0.1442
     18 H162       63.8858   43.3836   14.9486 H         1 MOL     0.1442
@<TRIPOS>BOND
     1    2    1 ar
     2    1    7 ar
     3    1   12 ar
     4    3    2 ar
     5    2    9 ar
     6   14    3 ar
     7    4    5 1 
     8    4    6 2 
     9    4   14 1 
    10    5   15 2 
    11    6   16 1 
    12    7    8 ar
    13    8   10 ar
    14    8   11 1 
    15    9   10 ar
    16   12   13 ar
    17   13   14 ar
    18   15   16 1 
    19   17   11 1 
    20   18   11 1 
@<TRIPOS>SUBSTRUCTURE
1 MOL         1
@<TRIPOS>MOLECULE
query molecule
   18    20     1     0     0
SMALL
NO_CHARGE

@<TRIPOS>ATOM
      1 C4         73.8003   48.0513    9.5877 C.ar      1 MOL     0.0725
      2 C5         73.1044   49.1711    9.1254 C.ar      1 MOL     0.0009
      3 C6         72.3872   49.9608   10.0246 C.ar      1 MOL     0.0187
      4 C7         71.6365   50.4247   12.3034 C.2       1 MOL    -0.0112
      5 C8         72.1813   50.7643   13.5066 C.2       1 MOL     0.0163
      6 C10        70.4200   50.9616   12.0977 C.2       1 MOL     0.0538
      7 N12        74.5124   47.2896    8.7416 N.ar      1 MOL    -0.2334
      8 C13        74.5775   47.5743    7.4234 C.ar      1 MOL     0.1153
      9 C15        73.1456   49.4917    7.7682 C.ar      1 MOL     0.0138
     10 C14        73.8920   48.6806    6.9045 C.ar      1 MOL     0.0445
     11 N16        75.2809   46.7839    6.6128 N.pl3     1 MOL    -0.3432
     12 C3         73.7732   47.7330   10.9447 C.ar      1 MOL     0.0295
     13 C2         73.0493   48.5197   11.8440 C.ar      1 MOL     0.0108
     14 C1         72.3385   49.6315   11.3893 C.ar      1 MOL    -0.0171
     15 C11        71.4678   51.5439   14.3341 C.2       1 MOL     0.0459
     16 S9         70.0507   51.8594   13.5018 S.3       1 MOL    -0.1054
     17 H161       75.9404   46.1235    6.9986 H         1 MOL     0.1442
     18 H162       75.1543   46.8456    5.6126 H         1 MOL     0.1442
@<TRIPOS>BOND
     1    2    1 ar
     2    1    7 ar
     3    1   12 ar
     4    3    2 ar
     5    2    9 ar
     6   14    3 ar
     7    4    5 1 
     8    4    6 2 
     9    4   14 1 
    10    5   15 2 
    11    6   16 1 
    12    7    8 ar
    13    8   10 ar
    14    8   11 1 
    15    9   10 ar
    16   12   13 ar
    17   13   14 ar
    18   15   16 1 
    19   17   11 1 
    20   18   11 1 
@<TRIPOS>SUBSTRUCTURE
1 MOL         1
@<TRIPOS>MOLECULE
query molecule
   18    20     1     0     0
SMALL
NO_CHARGE

@<TRIPOS>ATOM
      1 C4         74.5349   47.7359    5.9248 C.ar      1 MOL     0.0725
      2 C5         74.7989   46.3650    5.9787 C.ar      1 MOL     0.0009
      3 C6         75.4569   45.8294    7.0862 C.ar      1 MOL     0.0187
      4 C7         76.5231   46.1287    9.2645 C.2       1 MOL    -0.0112
      5 C8         75.9587   46.2057   10.5036 C.2       1 MOL     0.0163
      6 C10        77.6976   45.4721    9.2529 C.2       1 MOL     0.0538
      7 N12        73.8856   48.2681    4.8767 N.ar      1 MOL    -0.2334
      8 C13        73.4713   47.5037    3.8438 C.ar      1 MOL     0.1153
      9 C15        74.3895   45.5462    4.9259 C.ar      1 MOL     0.0138
     10 C14        73.7172   46.1243    3.8421 C.ar      1 MOL     0.0445
     11 N16        72.8453   48.0719    2.8134 N.pl3     1 MOL    -0.3432
     12 C3         74.9305   48.5574    6.9795 C.ar      1 MOL     0.0295
     13 C2         75.5956   48.0220    8.0853 C.ar      1 MOL     0.0108
     14 C1         75.8772   46.6562    8.1411 C.ar      1 MOL    -0.0171
     15 C11        76.6168   45.6643   11.5406 C.2       1 MOL     0.0459
     16 S9         78.0055   45.0157   10.8687 S.3       1 MOL    -0.1054
     17 H161       72.4789   49.0092    2.8996 H         1 MOL     0.1442
     18 H162       72.7372   47.5652    1.9465 H         1 MOL     0.1442
@<TRIPOS>BOND
     1    2    1 ar
     2    1    7 ar
     3    1   12 ar
     4    3    2 ar
     5    2    9 ar
     6   14    3 ar
     7    4    5 1 
     8    4    6 2 
     9    4   14 1 
    10    5   15 2 
    11    6   16 1 
    12    7    8 ar
    13    8   10 ar
    14    8   11 1 
    15    9   10 ar
    16   12   13 ar
    17   13   14 ar
    18   15   16 1 
    19   17   11 1 
    20   18   11 1 
@<TRIPOS>SUBSTRUCTURE
1 MOL         1
@<TRIPOS>MOLECULE
query molecule
   18    20     1     0     0
SMALL
NO_CHARGE

@<TRIPOS>ATOM
      1 C4         63.6710   48.4778   12.5682 C.ar      1 MOL     0.0725
      2 C5         64.6338   49.1847   13.2928 C.ar      1 MOL     0.0009
      3 C6         64.9157   48.8197   14.6096 C.ar      1 MOL     0.0187
      4 C7         64.5123   47.3750   16.5388 C.2       1 MOL    -0.0112
      5 C8         65.0649   46.1587   16.8123 C.2       1 MOL     0.0163
      6 C10        64.3301   48.1366   17.6330 C.2       1 MOL     0.0538
      7 N12        63.3989   48.8009   11.2935 N.ar      1 MOL    -0.2334
      8 C13        64.0385   49.8150   10.6728 C.ar      1 MOL     0.1153
      9 C15        65.3103   50.2421   12.6841 C.ar      1 MOL     0.0138
     10 C14        65.0072   50.5627   11.3551 C.ar      1 MOL     0.0445
     11 N16        63.7279   50.1161    9.4121 N.pl3     1 MOL    -0.3432
     12 C3         63.0004   47.4122   13.1670 C.ar      1 MOL     0.0295
     13 C2         63.2777   47.0512   14.4878 C.ar      1 MOL     0.0108
     14 C1         64.2270   47.7611   15.2246 C.ar      1 MOL    -0.0171
     15 C11        65.3344   45.8518   18.0910 C.2       1 MOL     0.0459
     16 S9         64.8704   47.2059   18.9580 S.3       1 MOL    -0.1054
     17 H161       63.7652   51.0754    9.0981 H         1 MOL     0.1442
     18 H162       63.4553   49.3851    8.7707 H         1 MOL     0.1442
@<TRIPOS>BOND
     1    2    1 ar
     2    1    7 ar
     3    1   12 ar
     4    3    2 ar
     5    2    9 ar
     6   14    3 ar
     7    4    5 1 
     8    4    6 2 
     9    4   14 1 
    10    5   15 2 
    11    6   16 1 
    12    7    8 ar
    13    8   10 ar
    14    8   11 1 
    15    9   10 ar
    16   12   13 ar
    17   13   14 ar
    18   15   16 1 
    19   17   11 1 
    20   18   11 1 
@<TRIPOS>SUBSTRUCTURE
1 MOL         1
@<TRIPOS>MOLECULE
query molecule
   18    20     1     0     0
SMALL
NO_CHARGE

@<TRIPOS>ATOM
      1 C4         74.2431   47.1575    4.7265 C.ar      1 MOL     0.0725
      2 C5         73.5347   46.3772    5.6437 C.ar      1 MOL     0.0009
      3 C6         73.3207   46.8526    6.9378 C.ar      1 MOL     0.0187
      4 C7         73.6055   48.5948    8.6274 C.2       1 MOL    -0.0112
      5 C8         72.6698   49.5589    8.8615 C.2       1 MOL     0.0163
      6 C10        74.2225   48.1677    9.7442 C.2       1 MOL     0.0538
      7 N12        74.4430   46.7266    3.4705 N.ar      1 MOL    -0.2334
      8 C13        73.9737   45.5313    3.0536 C.ar      1 MOL     0.1153
      9 C15        73.0400   45.1342    5.2482 C.ar      1 MOL     0.0138
     10 C14        73.2639   44.7044    3.9344 C.ar      1 MOL     0.0445
     11 N16        74.2078   45.1311    1.8040 N.pl3     1 MOL    -0.3432
     12 C3         74.7292   48.4060    5.1120 C.ar      1 MOL     0.0295
     13 C2         74.5209   48.8789    6.4100 C.ar      1 MOL     0.0108
     14 C1         73.8277   48.1000    7.3377 C.ar      1 MOL    -0.0171
     15 C11        72.4877   49.9803   10.1228 C.2       1 MOL     0.0459
     16 S9         73.5586   49.0707   11.0318 S.3       1 MOL    -0.1054
     17 H161       74.3437   44.1503    1.6049 H         1 MOL     0.1442
     18 H162       74.2492   45.8087    1.0562 H         1 MOL     0.1442
@<TRIPOS>BOND
     1    2    1 ar
     2    1    7 ar
     3    1   12 ar
     4    3    2 ar
     5    2    9 ar
     6   14    3 ar
     7    4    5 1 
     8    4    6 2 
     9    4   14 1 
    10    5   15 2 
    11    6   16 1 
    12    7    8 ar
    13    8   10 ar
    14    8   11 1 
    15    9   10 ar
    16   12   13 ar
    17   13   14 ar
    18   15   16 1 
    19   17   11 1 
    20   18   11 1 
@<TRIPOS>SUBSTRUCTURE
1 MOL         1
@<TRIPOS>MOLECULE
query molecule
   18    20     1     0     0
SMALL
NO_CHARGE

@<TRIPOS>ATOM
      1 C4         66.7873   49.6384   10.1722 C.ar      1 MOL     0.0725
      2 C5         67.0442   48.8117    9.0756 C.ar      1 MOL     0.0009
      3 C6         66.1381   47.8054    8.7395 C.ar      1 MOL     0.0187
      4 C7         64.0537   46.6040    9.1676 C.2       1 MOL    -0.0112
      5 C8         64.3377   45.2838    9.3577 C.2       1 MOL     0.0163
      6 C10        62.8164   46.8195    8.6847 C.2       1 MOL     0.0538
      7 N12        67.6370   50.6250   10.5005 N.ar      1 MOL    -0.2334
      8 C13        68.7632   50.8490    9.7903 C.ar      1 MOL     0.1153
      9 C15        68.2015   49.0117    8.3226 C.ar      1 MOL     0.0138
     10 C14        69.0743   50.0445    8.6861 C.ar      1 MOL     0.0445
     11 N16        69.5904   51.8272   10.1583 N.pl3     1 MOL    -0.3432
     12 C3         65.6263   49.4515   10.9211 C.ar      1 MOL     0.0295
     13 C2         64.7225   48.4394   10.5887 C.ar      1 MOL     0.0108
     14 C1         64.9780   47.5988    9.5043 C.ar      1 MOL    -0.0171
     15 C11        63.4036   44.3758    9.0339 C.2       1 MOL     0.0459
     16 S9         62.1068   45.2799    8.4850 S.3       1 MOL    -0.1054
     17 H161       70.5863   51.7227   10.0268 H         1 MOL     0.1442
     18 H162       69.2212   52.6731   10.5686 H         1 MOL     0.1442
@<TRIPOS>BOND
     1    2    1 ar
     2    1    7 ar
     3    1   12 ar
     4    3    2 ar
     5    2    9 ar
     6   14    3 ar
     7    4    5 1 
     8    4    6 2 
     9    4   14 1 
    10    5   15 2 
    11    6   16 1 
    12    7    8 ar
    13    8   10 ar
    14    8   11 1 
    15    9   10 ar
    16   12   13 ar
    17   13   14 ar
    18   15   16 1 
    19   17   11 1 
    20   18   11 1 
@<TRIPOS>SUBSTRUCTURE
1 MOL         1
@<TRIPOS>MOLECULE
query molecule
   18    20     1     0     0
SMALL
NO_CHARGE

@<TRIPOS>ATOM
      1 C4         73.3906   48.3731    9.4212 C.ar      1 MOL     0.0725
      2 C5         72.7103   49.5539    9.1131 C.ar      1 MOL     0.0009
      3 C6         72.0881   50.2800   10.1291 C.ar      1 MOL     0.0187
      4 C7         71.5131   50.5545   12.4882 C.2       1 MOL    -0.0112
      5 C8         72.1447   50.7481   13.6812 C.2       1 MOL     0.0163
      6 C10        70.3147   51.1619   12.4142 C.2       1 MOL     0.0538
      7 N12        74.0124   47.6700    8.4610 N.ar      1 MOL    -0.2334
      8 C13        73.9993   48.0740    7.1728 C.ar      1 MOL     0.1153
      9 C15        72.6721   49.9980    7.7912 C.ar      1 MOL     0.0138
     10 C14        73.3250   49.2463    6.8065 C.ar      1 MOL     0.0445
     11 N16        74.6137   47.3394    6.2458 N.pl3     1 MOL    -0.3432
     12 C3         73.4429   47.9308   10.7423 C.ar      1 MOL     0.0295
     13 C2         72.8138   48.6542   11.7586 C.ar      1 MOL     0.0108
     14 C1         72.1190   49.8268   11.4583 C.ar      1 MOL    -0.0171
     15 C11        71.5216   51.4714   14.6246 C.2       1 MOL     0.0459
     16 S9         70.0748   51.9301   13.9195 S.3       1 MOL    -0.1054
     17 H161       75.5935   47.4882    6.0511 H         1 MOL     0.1442
     18 H162       74.0994   46.6339    5.7379 H         1 MOL     0.1442
@<TRIPOS>BOND
     1    2    1 ar
     2    1    7 ar
     3    1   12 ar
     4    3    2 ar
     5    2    9 ar
     6   14    3 ar
     7    4    5 1 
     8    4    6 2 
     9    4   14 1 
    10    5   15 2 
    11    6   16 1 
    12    7    8 ar
    13    8   10 ar
    14    8   11 1 
    15    9   10 ar
    16   12   13 ar
    17   13   14 ar
    18   15   16 1 
    19   17   11 1 
    20   18   11 1 
@<TRIPOS>SUBSTRUCTURE
1 MOL         1
@<TRIPOS>MOLECULE
query molecule
   18    20     1     0     0
SMALL
NO_CHARGE

@<TRIPOS>ATOM
      1 C4         69.6608   49.5581    9.7361 C.ar      1 MOL     0.0725
      2 C5         70.5870   50.6042    9.7406 C.ar      1 MOL     0.0009
      3 C6         70.1516   51.9138    9.9451 C.ar      1 MOL     0.0187
      4 C7         68.3408   53.5042   10.3486 C.2       1 MOL    -0.0112
      5 C8         68.6949   54.5225    9.5135 C.2       1 MOL     0.0163
      6 C10        67.5105   53.8877   11.3356 C.2       1 MOL     0.0538
      7 N12        70.0618   48.2886    9.5603 N.ar      1 MOL    -0.2334
      8 C13        71.3637   47.9807    9.3792 C.ar      1 MOL     0.1153
      9 C15        71.9401   50.3224    9.5510 C.ar      1 MOL     0.0138
     10 C14        72.3340   48.9914    9.3662 C.ar      1 MOL     0.0445
     11 N16        71.7201   46.7103    9.1906 N.pl3     1 MOL    -0.3432
     12 C3         68.3087   49.8319    9.9374 C.ar      1 MOL     0.0295
     13 C2         67.8720   51.1441   10.1352 C.ar      1 MOL     0.0108
     14 C1         68.7878   52.1973   10.1261 C.ar      1 MOL    -0.0171
     15 C11        68.2192   55.7519    9.7668 C.2       1 MOL     0.0459
     16 S9         67.2618   55.5635   11.1264 S.3       1 MOL    -0.1054
     17 H161       71.9194   46.1185    9.9845 H         1 MOL     0.1442
     18 H162       71.7908   46.3393    8.2539 H         1 MOL     0.1442
@<TRIPOS>BOND
     1    2    1 ar
     2    1    7 ar
     3    1   12 ar
     4    3    2 ar
     5    2    9 ar
     6   14    3 ar
     7    4    5 1 
     8    4    6 2 
     9    4   14 1 
    10    5   15 2 
    11    6   16 1 
    12    7    8 ar
    13    8   10 ar
    14    8   11 1 
    15    9   10 ar
    16   12   13 ar
    17   13   14 ar
    18   15   16 1 
    19   17   11 1 
    20   18   11 1 
@<TRIPOS>SUBSTRUCTURE
1 MOL         1
@<TRIPOS>MOLECULE
query molecule
   18    20     1     0     0
SMALL
NO_CHARGE

@<TRIPOS>ATOM
      1 C4         72.7086   49.6348    9.4577 C.ar      1 MOL     0.0725
      2 C5         72.9052   49.0241   10.6988 C.ar      1 MOL     0.0009
      3 C6         73.9875   48.1633   10.8834 C.ar      1 MOL     0.0187
      4 C7         75.9707   47.0371   10.0058 C.2       1 MOL    -0.0112
      5 C8         77.1912   47.5289   10.3641 C.2       1 MOL     0.0163
      6 C10        75.9466   45.6962    9.8970 C.2       1 MOL     0.0538
      7 N12        71.6843   50.4815    9.2652 N.ar      1 MOL    -0.2334
      8 C13        70.8124   50.7677   10.2554 C.ar      1 MOL     0.1153
      9 C15        72.0201   49.2932   11.7430 C.ar      1 MOL     0.0138
     10 C14        70.9574   50.1769   11.5176 C.ar      1 MOL     0.0445
     11 N16        69.7983   51.6000   10.0201 N.pl3     1 MOL    -0.3432
     12 C3         73.5969   49.3795    8.4139 C.ar      1 MOL     0.0295
     13 C2         74.6766   48.5120    8.5968 C.ar      1 MOL     0.0108
     14 C1         74.8724   47.8855    9.8285 C.ar      1 MOL    -0.0171
     15 C11        78.2027   46.6640   10.5387 C.2       1 MOL     0.0459
     16 S9         77.5292   45.1602   10.2464 S.3       1 MOL    -0.1054
     17 H161       69.9224   52.5948   10.1427 H         1 MOL     0.1442
     18 H162       68.9056   51.2358    9.7190 H         1 MOL     0.1442
@<TRIPOS>BOND
     1    2    1 ar
     2    1    7 ar
     3    1   12 ar
     4    3    2 ar
     5    2    9 ar
     6   14    3 ar
     7    4    5 1 
     8    4    6 2 
     9    4   14 1 
    10    5   15 2 
    11    6   16 1 
    12    7    8 ar
    13    8   10 ar
    14    8   11 1 
    15    9   10 ar
    16   12   13 ar
    17   13   14 ar
    18   15   16 1 
    19   17   11 1 
    20   18   11 1 
@<TRIPOS>SUBSTRUCTURE
1 MOL         1
@<TRIPOS>MOLECULE
query molecule
   18    20     1     0     0
SMALL
NO_CHARGE

@<TRIPOS>ATOM
      1 C4         71.8125   50.0214    8.5024 C.ar      1 MOL     0.0725
      2 C5         71.5705   48.8911    9.2871 C.ar      1 MOL     0.0009
      3 C6         72.6366   48.0857    9.6889 C.ar      1 MOL     0.0187
      4 C7         75.0304   47.5953    9.7061 C.2       1 MOL    -0.0112
      5 C8         75.0338   46.9841   10.9252 C.2       1 MOL     0.0163
      6 C10        76.1195   47.3169    8.9665 C.2       1 MOL     0.0538
      7 N12        70.8026   50.8202    8.1215 N.ar      1 MOL    -0.2334
      8 C13        69.5266   50.5594    8.4774 C.ar      1 MOL     0.1153
      9 C15        70.2632   48.5887    9.6687 C.ar      1 MOL     0.0138
     10 C14        69.2260   49.4345    9.2567 C.ar      1 MOL     0.0445
     11 N16        68.5496   51.3668    8.0650 N.pl3     1 MOL    -0.3432
     12 C3         73.1182   50.3357    8.1282 C.ar      1 MOL     0.0295
     13 C2         74.1849   49.5253    8.5247 C.ar      1 MOL     0.0108
     14 C1         73.9514   48.3858    9.2959 C.ar      1 MOL    -0.0171
     15 C11        76.0884   46.2222   11.2555 C.2       1 MOL     0.0459
     16 S9         77.0950   46.2910    9.9203 S.3       1 MOL    -0.1054
     17 H161       67.5932   51.0423    8.0633 H         1 MOL     0.1442
     18 H162       68.7657   52.3031    7.7541 H         1 MOL     0.1442
@<TRIPOS>BOND
     1    2    1 ar
     2    1    7 ar
     3    1   12 ar
     4    3    2 ar
     5    2    9 ar
     6   14    3 ar
     7    4    5 1 
     8    4    6 2 
     9    4   14 1 
    10    5   15 2 
    11    6   16 1 
    12    7    8 ar
    13    8   10 ar
    14    8   11 1 
    15    9   10 ar
    16   12   13 ar
    17   13   14 ar
    18   15   16 1 
    19   17   11 1 
    20   18   11 1 
@<TRIPOS>SUBSTRUCTURE
1 MOL         1
@<TRIPOS>MOLECULE
query molecule
   18    20     1     0     0
SMALL
NO_CHARGE

@<TRIPOS>ATOM
      1 C4         64.0831   48.0404   13.8275 C.ar      1 MOL     0.0725
      2 C5         64.1332   46.6442   13.8170 C.ar      1 MOL     0.0009
      3 C6         63.7751   45.9470   12.6629 C.ar      1 MOL     0.0187
      4 C7         62.9978   45.9447   10.3461 C.2       1 MOL    -0.0112
      5 C8         63.9020   45.1561    9.6978 C.2       1 MOL     0.0163
      6 C10        61.7795   45.9402    9.7750 C.2       1 MOL     0.0538
      7 N12        64.4422   48.7308   14.9219 N.ar      1 MOL    -0.2334
      8 C13        64.8575   48.1050   16.0437 C.ar      1 MOL     0.1153
      9 C15        64.5527   45.9648   14.9610 C.ar      1 MOL     0.0138
     10 C14        64.9189   46.7060   16.0912 C.ar      1 MOL     0.0445
     11 N16        65.1889   48.8249   17.1154 N.pl3     1 MOL    -0.3432
     12 C3         63.6766   48.7255   12.6833 C.ar      1 MOL     0.0295
     13 C2         63.3114   48.0270   11.5299 C.ar      1 MOL     0.0108
     14 C1         63.3436   46.6318   11.5148 C.ar      1 MOL    -0.0171
     15 C11        63.5064   44.5061    8.5920 C.2       1 MOL     0.0459
     16 S9         61.8961   44.9231    8.4091 S.3       1 MOL    -0.1054
     17 H161       65.2132   48.3914   18.0272 H         1 MOL     0.1442
     18 H162       65.4158   49.8040   17.0155 H         1 MOL     0.1442
@<TRIPOS>BOND
     1    2    1 ar
     2    1    7 ar
     3    1   12 ar
     4    3    2 ar
     5    2    9 ar
     6   14    3 ar
     7    4    5 1 
     8    4    6 2 
     9    4   14 1 
    10    5   15 2 
    11    6   16 1 
    12    7    8 ar
    13    8   10 ar
    14    8   11 1 
    15    9   10 ar
    16   12   13 ar
    17   13   14 ar
    18   15   16 1 
    19   17   11 1 
    20   18   11 1 
@<TRIPOS>SUBSTRUCTURE
1 MOL         1
@<TRIPOS>MOLECULE
query molecule
   18    20     1     0     0
SMALL
NO_CHARGE

@<TRIPOS>ATOM
      1 C4         71.3570   42.8934    5.9939 C.ar      1 MOL     0.0725
      2 C5         71.4649   43.6838    7.1409 C.ar      1 MOL     0.0009
      3 C6         70.8704   43.2627    8.3307 C.ar      1 MOL     0.0187
      4 C7         69.5584   41.6199    9.5763 C.2       1 MOL    -0.0112
      5 C8         70.0811   40.5710   10.2737 C.2       1 MOL     0.0163
      6 C10        68.4900   42.1785   10.1737 C.2       1 MOL     0.0538
      7 N12        71.9383   43.2714    4.8440 N.ar      1 MOL    -0.2334
      8 C13        72.6391   44.4219    4.7549 C.ar      1 MOL     0.1153
      9 C15        72.1775   44.8818    7.0832 C.ar      1 MOL     0.0138
     10 C14        72.7721   45.2569    5.8721 C.ar      1 MOL     0.0445
     11 N16        73.1869   44.7711    3.5910 N.pl3     1 MOL    -0.3432
     12 C3         70.6567   41.6891    6.0485 C.ar      1 MOL     0.0295
     13 C2         70.0555   41.2708    7.2382 C.ar      1 MOL     0.0108
     14 C1         70.1450   42.0611    8.3852 C.ar      1 MOL    -0.0171
     15 C11        69.4862   40.2056   11.4201 C.2       1 MOL     0.0459
     16 S9         68.2179   41.2822   11.6008 S.3       1 MOL    -0.1054
     17 H161       73.4494   45.7320    3.4245 H         1 MOL     0.1442
     18 H162       73.3393   44.0747    2.8756 H         1 MOL     0.1442
@<TRIPOS>BOND
     1    2    1 ar
     2    1    7 ar
     3    1   12 ar
     4    3    2 ar
     5    2    9 ar
     6   14    3 ar
     7    4    5 1 
     8    4    6 2 
     9    4   14 1 
    10    5   15 2 
    11    6   16 1 
    12    7    8 ar
    13    8   10 ar
    14    8   11 1 
    15    9   10 ar
    16   12   13 ar
    17   13   14 ar
    18   15   16 1 
    19   17   11 1 
    20   18   11 1 
@<TRIPOS>SUBSTRUCTURE
1 MOL         1
@<TRIPOS>MOLECULE
query molecule
   18    20     1     0     0
SMALL
NO_CHARGE

@<TRIPOS>ATOM
      1 C4         67.6522   50.2212    9.3264 C.ar      1 MOL     0.0725
      2 C5         68.9175   49.6291    9.3459 C.ar      1 MOL     0.0009
      3 C6         69.8124   49.9407   10.3699 C.ar      1 MOL     0.0187
      4 C7         70.3464   51.1686   12.4140 C.2       1 MOL    -0.0112
      5 C8         69.9063   51.2888   13.6992 C.2       1 MOL     0.0163
      6 C10        71.6765   51.3284   12.2884 C.2       1 MOL     0.0538
      7 N12        66.7695   49.9200    8.3604 N.ar      1 MOL    -0.2334
      8 C13        67.0723   49.0438    7.3789 C.ar      1 MOL     0.1153
      9 C15        69.2658   48.7230    8.3439 C.ar      1 MOL     0.0138
     10 C14        68.3299   48.4271    7.3451 C.ar      1 MOL     0.0445
     11 N16        66.1752   48.7840    6.4280 N.pl3     1 MOL    -0.3432
     12 C3         67.2939   51.1181   10.3319 C.ar      1 MOL     0.0295
     13 C2         68.1925   51.4353   11.3534 C.ar      1 MOL     0.0108
     14 C1         69.4642   50.8606   11.3728 C.ar      1 MOL    -0.0171
     15 C11        70.8028   51.5666   14.6587 C.2       1 MOL     0.0459
     16 S9         72.2691   51.6507   13.8565 S.3       1 MOL    -0.1054
     17 H161       65.2021   49.0099    6.5764 H         1 MOL     0.1442
     18 H162       66.4686   48.3612    5.5589 H         1 MOL     0.1442
@<TRIPOS>BOND
     1    2    1 ar
     2    1    7 ar
     3    1   12 ar
     4    3    2 ar
     5    2    9 ar
     6   14    3 ar
     7    4    5 1 
     8    4    6 2 
     9    4   14 1 
    10    5   15 2 
    11    6   16 1 
    12    7    8 ar
    13    8   10 ar
    14    8   11 1 
    15    9   10 ar
    16   12   13 ar
    17   13   14 ar
    18   15   16 1 
    19   17   11 1 
    20   18   11 1 
@<TRIPOS>SUBSTRUCTURE
1 MOL         1
@<TRIPOS>MOLECULE
query molecule
   18    20     1     0     0
SMALL
NO_CHARGE

@<TRIPOS>ATOM
      1 C4         71.8976   50.2699   12.2128 C.ar      1 MOL     0.0725
      2 C5         71.3322   50.7460   11.0273 C.ar      1 MOL     0.0009
      3 C6         71.7439   50.2186    9.8030 C.ar      1 MOL     0.0187
      4 C7         73.1467   48.6787    8.5254 C.2       1 MOL    -0.0112
      5 C8         73.7669   49.4428    7.5813 C.2       1 MOL     0.0163
      6 C10        73.0279   47.3859    8.1718 C.2       1 MOL     0.0538
      7 N12        71.5012   50.7506   13.4024 N.ar      1 MOL    -0.2334
      8 C13        70.5522   51.7065   13.4942 C.ar      1 MOL     0.1153
      9 C15        70.3525   51.7376   11.0849 C.ar      1 MOL     0.0138
     10 C14        69.9578   52.2258   12.3365 C.ar      1 MOL     0.0445
     11 N16        70.1982   52.1703   14.6925 N.pl3     1 MOL    -0.3432
     12 C3         72.8681   49.2703   12.1625 C.ar      1 MOL     0.0295
     13 C2         73.2854   48.7471   10.9361 C.ar      1 MOL     0.0108
     14 C1         72.7374   49.2272    9.7456 C.ar      1 MOL    -0.0171
     15 C11        74.1544   48.8565    6.4377 C.2       1 MOL     0.0459
     16 S9         73.7131   47.2519    6.6141 S.3       1 MOL    -0.1054
     17 H161       70.4179   51.6409   15.5241 H         1 MOL     0.1442
     18 H162       69.7102   53.0512   14.7690 H         1 MOL     0.1442
@<TRIPOS>BOND
     1    2    1 ar
     2    1    7 ar
     3    1   12 ar
     4    3    2 ar
     5    2    9 ar
     6   14    3 ar
     7    4    5 1 
     8    4    6 2 
     9    4   14 1 
    10    5   15 2 
    11    6   16 1 
    12    7    8 ar
    13    8   10 ar
    14    8   11 1 
    15    9   10 ar
    16   12   13 ar
    17   13   14 ar
    18   15   16 1 
    19   17   11 1 
    20   18   11 1 
@<TRIPOS>SUBSTRUCTURE
1 MOL         1
@<TRIPOS>MOLECULE
query molecule
   18    20     1     0     0
SMALL
NO_CHARGE

@<TRIPOS>ATOM
      1 C4         69.8591   50.2661   11.3128 C.ar      1 MOL     0.0725
      2 C5         71.1548   50.4804   11.7895 C.ar      1 MOL     0.0009
      3 C6         72.2486   50.0355   11.0464 C.ar      1 MOL     0.0187
      4 C7         73.1518   48.9182    9.0698 C.2       1 MOL    -0.0112
      5 C8         73.9462   49.8039    8.4032 C.2       1 MOL     0.0163
      6 C10        73.5564   47.6409    8.9465 C.2       1 MOL     0.0538
      7 N12        68.7938   50.7036   12.0033 N.ar      1 MOL    -0.2334
      8 C13        68.9355   51.3577   13.1758 C.ar      1 MOL     0.1153
      9 C15        71.3378   51.1483   13.0006 C.ar      1 MOL     0.0138
     10 C14        70.2117   51.5922   13.7046 C.ar      1 MOL     0.0445
     11 N16        67.8527   51.7610   13.8402 N.pl3     1 MOL    -0.3432
     12 C3         69.6702   49.6102   10.0971 C.ar      1 MOL     0.0295
     13 C2         70.7653   49.1586    9.3565 C.ar      1 MOL     0.0108
     14 C1         72.0628   49.3545    9.8320 C.ar      1 MOL    -0.0171
     15 C11        74.9882   49.3275    7.7040 C.2       1 MOL     0.0459
     16 S9         74.9386   47.6722    7.9453 S.3       1 MOL    -0.1054
     17 H161       66.9650   51.8318   13.3637 H         1 MOL     0.1442
     18 H162       67.9200   51.9959   14.8202 H         1 MOL     0.1442
@<TRIPOS>BOND
     1    2    1 ar
     2    1    7 ar
     3    1   12 ar
     4    3    2 ar
     5    2    9 ar
     6   14    3 ar
     7    4    5 1 
     8    4    6 2 
     9    4   14 1 
    10    5   15 2 
    11    6   16 1 
    12    7    8 ar
    13    8   10 ar
    14    8   11 1 
    15    9   10 ar
    16   12   13 ar
    17   13   14 ar
    18   15   16 1 
    19   17   11 1 
    20   18   11 1 
@<TRIPOS>SUBSTRUCTURE
1 MOL         1
@<TRIPOS>MOLECULE
query molecule
   18    20     1     0     0
SMALL
NO_CHARGE

@<TRIPOS>ATOM
      1 C4         67.4169   53.3989   11.6713 C.ar      1 MOL     0.0725
      2 C5         68.5143   53.6552   10.8456 C.ar      1 MOL     0.0009
      3 C6         69.6462   52.8434   10.9261 C.ar      1 MOL     0.0187
      4 C7         70.8274   50.9505   11.9226 C.2       1 MOL    -0.0112
      5 C8         71.4927   50.7731   13.0997 C.2       1 MOL     0.0163
      6 C10        71.3333   50.2242   10.9091 C.2       1 MOL     0.0538
      7 N12        66.3107   54.1564   11.5957 N.ar      1 MOL    -0.2334
      8 C13        66.2218   55.1872   10.7283 C.ar      1 MOL     0.1153
      9 C15        68.4587   54.7159    9.9411 C.ar      1 MOL     0.0138
     10 C14        67.2960   55.4940    9.8826 C.ar      1 MOL     0.0445
     11 N16        65.1134   55.9266   10.6953 N.pl3     1 MOL    -0.3432
     12 C3         67.4616   52.3327   12.5685 C.ar      1 MOL     0.0295
     13 C2         68.5977   51.5241   12.6539 C.ar      1 MOL     0.0108
     14 C1         69.7048   51.7817   11.8439 C.ar      1 MOL    -0.0171
     15 C11        72.5514   49.9481   13.1178 C.2       1 MOL     0.0459
     16 S9         72.6648   49.3707   11.5512 S.3       1 MOL    -0.1054
     17 H161       64.7486   56.2508    9.8110 H         1 MOL     0.1442
     18 H162       64.6381   56.1628   11.5546 H         1 MOL     0.1442
@<TRIPOS>BOND
     1    2    1 ar
     2    1    7 ar
     3    1   12 ar
     4    3    2 ar
     5    2    9 ar
     6   14    3 ar
     7    4    5 1 
     8    4    6 2 
     9    4   14 1 
    10    5   15 2 
    11    6   16 1 
    12    7    8 ar
    13    8   10 ar
    14    8   11 1 
    15    9   10 ar
    16   12   13 ar
    17   13   14 ar
    18   15   16 1 
    19   17   11 1 
    20   18   11 1 
@<TRIPOS>SUBSTRUCTURE
1 MOL         1
@<TRIPOS>MOLECULE
query molecule
   18    20     1     0     0
SMALL
NO_CHARGE

@<TRIPOS>ATOM
      1 C4         74.1769   47.4502    9.3184 C.ar      1 MOL     0.0725
      2 C5         73.3426   48.5014    8.9297 C.ar      1 MOL     0.0009
      3 C6         72.7266   49.2919    9.9004 C.ar      1 MOL     0.0187
      4 C7         72.3195   49.8265   12.2498 C.2       1 MOL    -0.0112
      5 C8         72.7080   49.7476   13.5547 C.2       1 MOL     0.0163
      6 C10        71.3693   50.7536   12.0311 C.2       1 MOL     0.0538
      7 N12        74.7944   46.6899    8.3998 N.ar      1 MOL    -0.2334
      8 C13        74.6292   46.9101    7.0780 C.ar      1 MOL     0.1153
      9 C15        73.1452   48.7537    7.5719 C.ar      1 MOL     0.0138
     10 C14        73.7970   47.9454    6.6325 C.ar      1 MOL     0.0445
     11 N16        75.2457   46.1225    6.1970 N.pl3     1 MOL    -0.3432
     12 C3         74.3879   47.2009   10.6737 C.ar      1 MOL     0.0295
     13 C2         73.7656   47.9881   11.6456 C.ar      1 MOL     0.0108
     14 C1         72.9184   49.0307   11.2672 C.ar      1 MOL    -0.0171
     15 C11        72.1104   50.5502   14.4493 C.2       1 MOL     0.0459
     16 S9         71.0231   51.4504   13.5505 S.3       1 MOL    -0.1054
     17 H161       75.6408   46.5180    5.3559 H         1 MOL     0.1442
     18 H162       75.3177   45.1302    6.3705 H         1 MOL     0.1442
@<TRIPOS>BOND
     1    2    1 ar
     2    1    7 ar
     3    1   12 ar
     4    3    2 ar
     5    2    9 ar
     6   14    3 ar
     7    4    5 1 
     8    4    6 2 
     9    4   14 1 
    10    5   15 2 
    11    6   16 1 
    12    7    8 ar
    13    8   10 ar
    14    8   11 1 
    15    9   10 ar
    16   12   13 ar
    17   13   14 ar
    18   15   16 1 
    19   17   11 1 
    20   18   11 1 
@<TRIPOS>SUBSTRUCTURE
1 MOL         1
@<TRIPOS>MOLECULE
query molecule
   18    20     1     0     0
SMALL
NO_CHARGE

@<TRIPOS>ATOM
      1 C4         71.1831   50.6476   12.5979 C.ar      1 MOL     0.0725
      2 C5         70.9575   50.6274   11.2193 C.ar      1 MOL     0.0009
      3 C6         70.1334   51.5915   10.6381 C.ar      1 MOL     0.0187
      4 C7         68.6938   53.5543   10.8532 C.2       1 MOL    -0.0112
      5 C8         67.4814   53.8678   11.3930 C.2       1 MOL     0.0163
      6 C10        69.0112   54.3047    9.7823 C.2       1 MOL     0.0538
      7 N12        71.9883   49.7404   13.1739 N.ar      1 MOL    -0.2334
      8 C13        72.6009   48.7814   12.4474 C.ar      1 MOL     0.1153
      9 C15        71.5704   49.6468   10.4387 C.ar      1 MOL     0.0138
     10 C14        72.4032   48.7094   11.0621 C.ar      1 MOL     0.0445
     11 N16        73.3791   47.8882   13.0583 N.pl3     1 MOL    -0.3432
     12 C3         70.5833   51.6325   13.3815 C.ar      1 MOL     0.0295
     13 C2         69.7525   52.5937   12.8004 C.ar      1 MOL     0.0108
     14 C1         69.5090   52.5723   11.4263 C.ar      1 MOL    -0.0171
     15 C11        66.7522   54.8324   10.8104 C.2       1 MOL     0.0459
     16 S9         67.6929   55.3595    9.5306 S.3       1 MOL    -0.1054
     17 H161       74.2383   47.5852   12.6226 H         1 MOL     0.1442
     18 H162       73.1094   47.5145   13.9570 H         1 MOL     0.1442
@<TRIPOS>BOND
     1    2    1 ar
     2    1    7 ar
     3    1   12 ar
     4    3    2 ar
     5    2    9 ar
     6   14    3 ar
     7    4    5 1 
     8    4    6 2 
     9    4   14 1 
    10    5   15 2 
    11    6   16 1 
    12    7    8 ar
    13    8   10 ar
    14    8   11 1 
    15    9   10 ar
    16   12   13 ar
    17   13   14 ar
    18   15   16 1 
    19   17   11 1 
    20   18   11 1 
@<TRIPOS>SUBSTRUCTURE
1 MOL         1
@<TRIPOS>MOLECULE
query molecule
   18    20     1     0     0
SMALL
NO_CHARGE

@<TRIPOS>ATOM
      1 C4         78.3964   42.3859   14.3915 C.ar      1 MOL     0.0725
      2 C5         77.0868   42.6323   13.9718 C.ar      1 MOL     0.0009
      3 C6         76.8560   43.4577   12.8709 C.ar      1 MOL     0.0187
      4 C7         77.7078   44.8790   11.0748 C.2       1 MOL    -0.0112
      5 C8         77.6890   44.3600    9.8139 C.2       1 MOL     0.0163
      6 C10        77.4556   46.2001   11.1120 C.2       1 MOL     0.0538
      7 N12        78.6407   41.5790   15.4367 N.ar      1 MOL    -0.2334
      8 C13        77.6370   40.9847   16.1164 C.ar      1 MOL     0.1153
      9 C15        76.0250   42.0386   14.6547 C.ar      1 MOL     0.0138
     10 C14        76.3042   41.2037   15.7437 C.ar      1 MOL     0.0445
     11 N16        77.9193   40.2042   17.1593 N.pl3     1 MOL    -0.3432
     12 C3         79.4623   42.9664   13.7054 C.ar      1 MOL     0.0295
     13 C2         79.2308   43.7985   12.6073 C.ar      1 MOL     0.0108
     14 C1         77.9254   44.0627   12.1901 C.ar      1 MOL    -0.0171
     15 C11        77.4561   45.1894    8.7845 C.2       1 MOL     0.0459
     16 S9         77.2330   46.6896    9.4919 S.3       1 MOL    -0.1054
     17 H161       78.8616   40.1655   17.5207 H         1 MOL     0.1442
     18 H162       77.1909   39.6515   17.5882 H         1 MOL     0.1442
@<TRIPOS>BOND
     1    2    1 ar
     2    1    7 ar
     3    1   12 ar
     4    3    2 ar
     5    2    9 ar
     6   14    3 ar
     7    4    5 1 
     8    4    6 2 
     9    4   14 1 
    10    5   15 2 
    11    6   16 1 
    12    7    8 ar
    13    8   10 ar
    14    8   11 1 
    15    9   10 ar
    16   12   13 ar
    17   13   14 ar
    18   15   16 1 
    19   17   11 1 
    20   18   11 1 
@<TRIPOS>SUBSTRUCTURE
1 MOL         1
@<TRIPOS>MOLECULE
query molecule
   18    20     1     0     0
SMALL
NO_CHARGE

@<TRIPOS>ATOM
      1 C4         67.2053   50.1566    9.2607 C.ar      1 MOL     0.0725
      2 C5         66.5003   49.9804   10.4539 C.ar      1 MOL     0.0009
      3 C6         65.4683   49.0437   10.5168 C.ar      1 MOL     0.0187
      4 C7         64.0922   47.3343    9.4416 C.2       1 MOL    -0.0112
      5 C8         63.9318   46.5348   10.5347 C.2       1 MOL     0.0163
      6 C10        63.1611   47.1324    8.4915 C.2       1 MOL     0.0538
      7 N12        68.2146   51.0391    9.1850 N.ar      1 MOL    -0.2334
      8 C13        68.5788   51.7845   10.2501 C.ar      1 MOL     0.1153
      9 C15        66.8466   50.7381   11.5730 C.ar      1 MOL     0.0138
     10 C14        67.9003   51.6544   11.4691 C.ar      1 MOL     0.0445
     11 N16        69.5746   52.6623   10.1302 N.pl3     1 MOL    -0.3432
     12 C3         66.8720   49.3936    8.1424 C.ar      1 MOL     0.0295
     13 C2         65.8340   48.4606    8.2035 C.ar      1 MOL     0.0108
     14 C1         65.1141   48.2883    9.3867 C.ar      1 MOL    -0.0171
     15 C11        62.9212   45.6513   10.5378 C.2       1 MOL     0.0459
     16 S9         62.1451   45.8908    9.0747 S.3       1 MOL    -0.1054
     17 H161       69.9623   52.8650    9.2199 H         1 MOL     0.1442
     18 H162       69.9416   53.1246   10.9498 H         1 MOL     0.1442
@<TRIPOS>BOND
     1    2    1 ar
     2    1    7 ar
     3    1   12 ar
     4    3    2 ar
     5    2    9 ar
     6   14    3 ar
     7    4    5 1 
     8    4    6 2 
     9    4   14 1 
    10    5   15 2 
    11    6   16 1 
    12    7    8 ar
    13    8   10 ar
    14    8   11 1 
    15    9   10 ar
    16   12   13 ar
    17   13   14 ar
    18   15   16 1 
    19   17   11 1 
    20   18   11 1 
@<TRIPOS>SUBSTRUCTURE
1 MOL         1
@<TRIPOS>MOLECULE
query molecule
   18    20     1     0     0
SMALL
NO_CHARGE

@<TRIPOS>ATOM
      1 C4         67.3919   49.2333    8.7655 C.ar      1 MOL     0.0725
      2 C5         68.2146   48.1044    8.7924 C.ar      1 MOL     0.0009
      3 C6         69.4712   48.1773    9.3942 C.ar      1 MOL     0.0187
      4 C7         71.1807   49.4615   10.5773 C.2       1 MOL    -0.0112
      5 C8         71.3061   49.3401   11.9298 C.2       1 MOL     0.0163
      6 C10        72.3580   49.6135    9.9437 C.2       1 MOL     0.0538
      7 N12        66.1714   49.1787    8.2083 N.ar      1 MOL    -0.2334
      8 C13        65.7008   48.0406    7.6551 C.ar      1 MOL     0.1153
      9 C15        67.7621   46.9129    8.2251 C.ar      1 MOL     0.0138
     10 C14        66.4871   46.8809    7.6469 C.ar      1 MOL     0.0445
     11 N16        64.4907   48.0311    7.0964 N.pl3     1 MOL    -0.3432
     12 C3         67.8335   50.4236    9.3417 C.ar      1 MOL     0.0295
     13 C2         69.0946   50.4984    9.9381 C.ar      1 MOL     0.0108
     14 C1         69.9296   49.3802    9.9564 C.ar      1 MOL    -0.0171
     15 C11        72.5346   49.4072   12.4665 C.2       1 MOL     0.0459
     16 S9         73.5575   49.6131   11.1582 S.3       1 MOL    -0.1054
     17 H161       63.9872   48.8970    6.9673 H         1 MOL     0.1442
     18 H162       64.0773   47.1578    6.8020 H         1 MOL     0.1442
@<TRIPOS>BOND
     1    2    1 ar
     2    1    7 ar
     3    1   12 ar
     4    3    2 ar
     5    2    9 ar
     6   14    3 ar
     7    4    5 1 
     8    4    6 2 
     9    4   14 1 
    10    5   15 2 
    11    6   16 1 
    12    7    8 ar
    13    8   10 ar
    14    8   11 1 
    15    9   10 ar
    16   12   13 ar
    17   13   14 ar
    18   15   16 1 
    19   17   11 1 
    20   18   11 1 
@<TRIPOS>SUBSTRUCTURE
1 MOL         1
@<TRIPOS>MOLECULE
query molecule
   18    20     1     0     0
SMALL
NO_CHARGE

@<TRIPOS>ATOM
      1 C4         64.5345   47.8372   16.6825 C.ar      1 MOL     0.0725
      2 C5         64.1391   48.7836   15.7338 C.ar      1 MOL     0.0009
      3 C6         63.8885   50.0978   16.1293 C.ar      1 MOL     0.0187
      4 C7         63.7761   51.7963   17.8826 C.2       1 MOL    -0.0112
      5 C8         64.3758   52.8453   17.2504 C.2       1 MOL     0.0163
      6 C10        62.9382   52.1739   18.8653 C.2       1 MOL     0.0538
      7 N12        64.7993   46.5719   16.3191 N.ar      1 MOL    -0.2334
      8 C13        64.6899   46.1713   15.0345 C.ar      1 MOL     0.1153
      9 C15        64.0107   48.4026   14.3978 C.ar      1 MOL     0.0138
     10 C14        64.2889   47.0768   14.0433 C.ar      1 MOL     0.0445
     11 N16        64.9447   44.9023   14.7162 N.pl3     1 MOL    -0.3432
     12 C3         64.6765   48.2148   18.0170 C.ar      1 MOL     0.0295
     13 C2         64.4188   49.5292   18.4141 C.ar      1 MOL     0.0108
     14 C1         64.0086   50.4779   17.4762 C.ar      1 MOL    -0.0171
     15 C11        64.0990   54.0891   17.6724 C.2       1 MOL     0.0459
     16 S9         63.0034   53.8787   18.9199 S.3       1 MOL    -0.1054
     17 H161       65.6997   44.6823   14.0825 H         1 MOL     0.1442
     18 H162       64.3826   44.1606   15.1088 H         1 MOL     0.1442
@<TRIPOS>BOND
     1    2    1 ar
     2    1    7 ar
     3    1   12 ar
     4    3    2 ar
     5    2    9 ar
     6   14    3 ar
     7    4    5 1 
     8    4    6 2 
     9    4   14 1 
    10    5   15 2 
    11    6   16 1 
    12    7    8 ar
    13    8   10 ar
    14    8   11 1 
    15    9   10 ar
    16   12   13 ar
    17   13   14 ar
    18   15   16 1 
    19   17   11 1 
    20   18   11 1 
@<TRIPOS>SUBSTRUCTURE
1 MOL         1
@<TRIPOS>MOLECULE
query molecule
   18    20     1     0     0
SMALL
NO_CHARGE

@<TRIPOS>ATOM
      1 C4         67.1937   49.6681    9.5908 C.ar      1 MOL     0.0725
      2 C5         67.7913   50.4851   10.5539 C.ar      1 MOL     0.0009
      3 C6         69.1481   50.3364   10.8429 C.ar      1 MOL     0.0187
      4 C7         71.2834   49.2114   10.4603 C.2       1 MOL    -0.0112
      5 C8         72.2270   49.6149    9.5623 C.2       1 MOL     0.0163
      6 C10        71.8057   48.7225   11.5999 C.2       1 MOL     0.0538
      7 N12        65.8939   49.8083    9.2842 N.ar      1 MOL    -0.2334
      8 C13        65.1232   50.7341    9.8938 C.ar      1 MOL     0.1153
      9 C15        67.0230   51.4489   11.2074 C.ar      1 MOL     0.0138
     10 C14        65.6689   51.5742   10.8734 C.ar      1 MOL     0.0445
     11 N16        63.8328   50.8308    9.5744 N.pl3     1 MOL    -0.3432
     12 C3         67.9592   48.7115    8.9254 C.ar      1 MOL     0.0295
     13 C2         69.3162   48.5580    9.2199 C.ar      1 MOL     0.0108
     14 C1         69.9184   49.3591   10.1912 C.ar      1 MOL    -0.0171
     15 C11        73.5214   49.4655    9.8844 C.2       1 MOL     0.0459
     16 S9         73.5014   48.7972   11.4186 S.3       1 MOL    -0.1054
     17 H161       63.4751   51.6845    9.1702 H         1 MOL     0.1442
     18 H162       63.2126   50.0503    9.7364 H         1 MOL     0.1442
@<TRIPOS>BOND
     1    2    1 ar
     2    1    7 ar
     3    1   12 ar
     4    3    2 ar
     5    2    9 ar
     6   14    3 ar
     7    4    5 1 
     8    4    6 2 
     9    4   14 1 
    10    5   15 2 
    11    6   16 1 
    12    7    8 ar
    13    8   10 ar
    14    8   11 1 
    15    9   10 ar
    16   12   13 ar
    17   13   14 ar
    18   15   16 1 
    19   17   11 1 
    20   18   11 1 
@<TRIPOS>SUBSTRUCTURE
1 MOL         1
@<TRIPOS>MOLECULE
query molecule
   18    20     1     0     0
SMALL
NO_CHARGE

@<TRIPOS>ATOM
      1 C4         65.1984   47.4471    8.2549 C.ar      1 MOL     0.0725
      2 C5         65.0918   48.3759    9.2932 C.ar      1 MOL     0.0009
      3 C6         64.2748   48.0983   10.3896 C.ar      1 MOL     0.0187
      4 C7         62.7301   46.6059   11.5548 C.2       1 MOL    -0.0112
      5 C8         63.2728   46.3318   12.7755 C.2       1 MOL     0.0163
      6 C10        61.3845   46.6017   11.5559 C.2       1 MOL     0.0538
      7 N12        65.9943   47.6867    7.2003 N.ar      1 MOL    -0.2334
      8 C13        66.7114   48.8266    7.1046 C.ar      1 MOL     0.1153
      9 C15        65.8149   49.5670    9.2244 C.ar      1 MOL     0.0138
     10 C14        66.6356   49.7962    8.1132 C.ar      1 MOL     0.0445
     11 N16        67.4768   49.0354    6.0335 N.pl3     1 MOL    -0.3432
     12 C3         64.4879   46.2496    8.3239 C.ar      1 MOL     0.0295
     13 C2         63.6644   45.9748    9.4185 C.ar      1 MOL     0.0108
     14 C1         63.5397   46.9030   10.4532 C.ar      1 MOL    -0.0171
     15 C11        62.4447   46.0731   13.7998 C.2       1 MOL     0.0459
     16 S9         60.9094   46.2151   13.1493 S.3       1 MOL    -0.1054
     17 H161       68.4764   49.1343    6.1386 H         1 MOL     0.1442
     18 H162       67.0570   49.0946    5.1167 H         1 MOL     0.1442
@<TRIPOS>BOND
     1    2    1 ar
     2    1    7 ar
     3    1   12 ar
     4    3    2 ar
     5    2    9 ar
     6   14    3 ar
     7    4    5 1 
     8    4    6 2 
     9    4   14 1 
    10    5   15 2 
    11    6   16 1 
    12    7    8 ar
    13    8   10 ar
    14    8   11 1 
    15    9   10 ar
    16   12   13 ar
    17   13   14 ar
    18   15   16 1 
    19   17   11 1 
    20   18   11 1 
@<TRIPOS>SUBSTRUCTURE
1 MOL         1
@<TRIPOS>MOLECULE
query molecule
   18    20     1     0     0
SMALL
NO_CHARGE

@<TRIPOS>ATOM
      1 C4         64.9560   49.6403   13.8356 C.ar      1 MOL     0.0725
      2 C5         64.8628   49.6227   12.4418 C.ar      1 MOL     0.0009
      3 C6         65.7632   50.3658   11.6779 C.ar      1 MOL     0.0187
      4 C7         67.6710   51.8866   11.5394 C.2       1 MOL    -0.0112
      5 C8         68.9544   51.4559   11.3747 C.2       1 MOL     0.0163
      6 C10        67.4016   53.0266   10.8773 C.2       1 MOL     0.0538
      7 N12        64.1113   48.9168   14.5881 N.ar      1 MOL    -0.2334
      8 C13        63.1468   48.1555   14.0289 C.ar      1 MOL     0.1153
      9 C15        63.8743   48.8509   11.8306 C.ar      1 MOL     0.0138
     10 C14        63.0028   48.1075   12.6360 C.ar      1 MOL     0.0445
     11 N16        62.3165   47.4651   14.8104 N.pl3     1 MOL    -0.3432
     12 C3         65.9495   50.3999   14.4518 C.ar      1 MOL     0.0295
     13 C2         66.8468   51.1495   13.6871 C.ar      1 MOL     0.0108
     14 C1         66.7519   51.1502   12.2947 C.ar      1 MOL    -0.0171
     15 C11        69.7853   52.1949   10.6230 C.2       1 MOL     0.0459
     16 S9         68.8510   53.4804   10.0982 S.3       1 MOL    -0.1054
     17 H161       61.4502   47.8821   15.1198 H         1 MOL     0.1442
     18 H162       62.5538   46.5250   15.0932 H         1 MOL     0.1442
@<TRIPOS>BOND
     1    2    1 ar
     2    1    7 ar
     3    1   12 ar
     4    3    2 ar
     5    2    9 ar
     6   14    3 ar
     7    4    5 1 
     8    4    6 2 
     9    4   14 1 
    10    5   15 2 
    11    6   16 1 
    12    7    8 ar
    13    8   10 ar
    14    8   11 1 
    15    9   10 ar
    16   12   13 ar
    17   13   14 ar
    18   15   16 1 
    19   17   11 1 
    20   18   11 1 
@<TRIPOS>SUBSTRUCTURE
1 MOL         1
@<TRIPOS>MOLECULE
query molecule
   18    20     1     0     0
SMALL
NO_CHARGE

@<TRIPOS>ATOM
      1 C4         71.9652   50.1141   12.4020 C.ar      1 MOL     0.0725
      2 C5         71.3719   50.6110   11.2388 C.ar      1 MOL     0.0009
      3 C6         71.7928   50.1447    9.9930 C.ar      1 MOL     0.0187
      4 C7         73.2422   48.7073    8.6497 C.2       1 MOL    -0.0112
      5 C8         72.3935   48.0076    7.8436 C.2       1 MOL     0.0163
      6 C10        74.4574   48.9007    8.1052 C.2       1 MOL     0.0538
      7 N12        71.5611   50.5356   13.6112 N.ar      1 MOL    -0.2334
      8 C13        70.5773   51.4504   13.7449 C.ar      1 MOL     0.1153
      9 C15        70.3557   51.5615   11.3399 C.ar      1 MOL     0.0138
     10 C14        69.9535   51.9884   12.6114 C.ar      1 MOL     0.0445
     11 N16        70.2161   51.8564   14.9620 N.pl3     1 MOL    -0.3432
     12 C3         72.9727   49.1550   12.3080 C.ar      1 MOL     0.0295
     13 C2         73.3989   48.6932   11.0602 C.ar      1 MOL     0.0108
     14 C1         72.8228   49.1949    9.8922 C.ar      1 MOL    -0.0171
     15 C11        72.8470   47.5819    6.6541 C.2       1 MOL     0.0459
     16 S9         74.4250   48.1340    6.5804 S.3       1 MOL    -0.1054
     17 H161       70.6667   52.6570   15.3817 H         1 MOL     0.1442
     18 H162       69.4919   51.3635   15.4645 H         1 MOL     0.1442
@<TRIPOS>BOND
     1    2    1 ar
     2    1    7 ar
     3    1   12 ar
     4    3    2 ar
     5    2    9 ar
     6   14    3 ar
     7    4    5 1 
     8    4    6 2 
     9    4   14 1 
    10    5   15 2 
    11    6   16 1 
    12    7    8 ar
    13    8   10 ar
    14    8   11 1 
    15    9   10 ar
    16   12   13 ar
    17   13   14 ar
    18   15   16 1 
    19   17   11 1 
    20   18   11 1 
@<TRIPOS>SUBSTRUCTURE
1 MOL         1
@<TRIPOS>MOLECULE
query molecule
   18    20     1     0     0
SMALL
NO_CHARGE

@<TRIPOS>ATOM
      1 C4         69.9029   47.4702    9.1169 C.ar      1 MOL     0.0725
      2 C5         71.2383   47.2724    9.4768 C.ar      1 MOL     0.0009
      3 C6         71.7917   48.0150   10.5202 C.ar      1 MOL     0.0187
      4 C7         71.5660   49.7156   12.2605 C.2       1 MOL    -0.0112
      5 C8         71.3508   51.0582   12.3648 C.2       1 MOL     0.0163
      6 C10        72.2851   49.2097   13.2790 C.2       1 MOL     0.0538
      7 N12        69.3460   46.7520    8.1284 N.ar      1 MOL    -0.2334
      8 C13        70.0524   45.8229    7.4497 C.ar      1 MOL     0.1153
      9 C15        71.9993   46.3240    8.7928 C.ar      1 MOL     0.0138
     10 C14        71.3979   45.5895    7.7634 C.ar      1 MOL     0.0445
     11 N16        69.4689   45.1426    6.4632 N.pl3     1 MOL    -0.3432
     12 C3         69.1338   48.4077    9.8048 C.ar      1 MOL     0.0295
     13 C2         69.6900   49.1562   10.8451 C.ar      1 MOL     0.0108
     14 C1         71.0273   48.9765   11.2017 C.ar      1 MOL    -0.0171
     15 C11        71.8769   51.7105   13.4133 C.2       1 MOL     0.0459
     16 S9         72.6578   50.5256   14.3004 S.3       1 MOL    -0.1054
     17 H161       69.5079   45.4923    5.5165 H         1 MOL     0.1442
     18 H162       68.9876   44.2772    6.6624 H         1 MOL     0.1442
@<TRIPOS>BOND
     1    2    1 ar
     2    1    7 ar
     3    1   12 ar
     4    3    2 ar
     5    2    9 ar
     6   14    3 ar
     7    4    5 1 
     8    4    6 2 
     9    4   14 1 
    10    5   15 2 
    11    6   16 1 
    12    7    8 ar
    13    8   10 ar
    14    8   11 1 
    15    9   10 ar
    16   12   13 ar
    17   13   14 ar
    18   15   16 1 
    19   17   11 1 
    20   18   11 1 
@<TRIPOS>SUBSTRUCTURE
1 MOL         1
@<TRIPOS>MOLECULE
query molecule
   18    20     1     0     0
SMALL
NO_CHARGE

@<TRIPOS>ATOM
      1 C4         73.6334   48.2712    6.1762 C.ar      1 MOL     0.0725
      2 C5         74.2605   47.0309    6.0327 C.ar      1 MOL     0.0009
      3 C6         74.1483   46.3331    4.8299 C.ar      1 MOL     0.0187
      4 C7         73.2870   46.1707    2.5488 C.2       1 MOL    -0.0112
      5 C8         72.3256   46.4975    1.6385 C.2       1 MOL     0.0163
      6 C10        74.1082   45.1908    2.1292 C.2       1 MOL     0.0538
      7 N12        73.7454   48.9676    7.3188 N.ar      1 MOL    -0.2334
      8 C13        74.4592   48.4959    8.3632 C.ar      1 MOL     0.1153
      9 C15        75.0020   46.5110    7.0939 C.ar      1 MOL     0.0138
     10 C14        75.1016   47.2537    8.2768 C.ar      1 MOL     0.0445
     11 N16        74.5322   49.2090    9.4869 N.pl3     1 MOL    -0.3432
     12 C3         72.9014   48.8018    5.1149 C.ar      1 MOL     0.0295
     13 C2         72.7832   48.0997    3.9129 C.ar      1 MOL     0.0108
     14 C1         73.3934   46.8531    3.7655 C.ar      1 MOL    -0.0171
     15 C11        72.2852   45.8203    0.4803 C.2       1 MOL     0.0459
     16 S9         73.5583   44.7385    0.5778 S.3       1 MOL    -0.1054
     17 H161       74.0467   48.8967   10.3156 H         1 MOL     0.1442
     18 H162       75.0732   50.0616    9.5097 H         1 MOL     0.1442
@<TRIPOS>BOND
     1    2    1 ar
     2    1    7 ar
     3    1   12 ar
     4    3    2 ar
     5    2    9 ar
     6   14    3 ar
     7    4    5 1 
     8    4    6 2 
     9    4   14 1 
    10    5   15 2 
    11    6   16 1 
    12    7    8 ar
    13    8   10 ar
    14    8   11 1 
    15    9   10 ar
    16   12   13 ar
    17   13   14 ar
    18   15   16 1 
    19   17   11 1 
    20   18   11 1 
@<TRIPOS>SUBSTRUCTURE
1 MOL         1
@<TRIPOS>MOLECULE
query molecule
   18    20     1     0     0
SMALL
NO_CHARGE

@<TRIPOS>ATOM
      1 C4         74.4426   47.9812    6.3306 C.ar      1 MOL     0.0725
      2 C5         74.7963   46.6335    6.4333 C.ar      1 MOL     0.0009
      3 C6         75.5291   46.1918    7.5353 C.ar      1 MOL     0.0187
      4 C7         76.6557   46.6575    9.6532 C.2       1 MOL    -0.0112
      5 C8         76.0329   46.0418   10.6986 C.2       1 MOL     0.0163
      6 C10        77.9897   46.7472    9.8046 C.2       1 MOL     0.0538
      7 N12        73.7210   48.4227    5.2878 N.ar      1 MOL    -0.2334
      8 C13        73.3180   47.5871    4.3069 C.ar      1 MOL     0.1153
      9 C15        74.4010   45.7431    5.4348 C.ar      1 MOL     0.0138
     10 C14        73.6521   46.2272    4.3552 C.ar      1 MOL     0.0445
     11 N16        72.6179   48.0668    3.2791 N.pl3     1 MOL    -0.3432
     12 C3         74.8241   48.8736    7.3315 C.ar      1 MOL     0.0295
     13 C2         75.5639   48.4325    8.4315 C.ar      1 MOL     0.0108
     14 C1         75.9350   47.0911    8.5352 C.ar      1 MOL    -0.0171
     15 C11        76.7798   45.6302   11.7351 C.2       1 MOL     0.0459
     16 S9         78.3471   46.0422   11.3176 S.3       1 MOL    -0.1054
     17 H161       73.0441   48.1359    2.3661 H         1 MOL     0.1442
     18 H162       71.6612   48.3613    3.4135 H         1 MOL     0.1442
@<TRIPOS>BOND
     1    2    1 ar
     2    1    7 ar
     3    1   12 ar
     4    3    2 ar
     5    2    9 ar
     6   14    3 ar
     7    4    5 1 
     8    4    6 2 
     9    4   14 1 
    10    5   15 2 
    11    6   16 1 
    12    7    8 ar
    13    8   10 ar
    14    8   11 1 
    15    9   10 ar
    16   12   13 ar
    17   13   14 ar
    18   15   16 1 
    19   17   11 1 
    20   18   11 1 
@<TRIPOS>SUBSTRUCTURE
1 MOL         1
@<TRIPOS>MOLECULE
query molecule
   18    20     1     0     0
SMALL
NO_CHARGE

@<TRIPOS>ATOM
      1 C4         70.7125   50.5571   10.6451 C.ar      1 MOL     0.0725
      2 C5         70.5303   51.3860   11.7549 C.ar      1 MOL     0.0009
      3 C6         69.6146   52.4367   11.6918 C.ar      1 MOL     0.0187
      4 C7         67.9538   53.7257   10.4461 C.2       1 MOL    -0.0112
      5 C8         66.7116   53.5971   10.9939 C.2       1 MOL     0.0163
      6 C10        68.1733   54.9354    9.8995 C.2       1 MOL     0.0538
      7 N12        71.5746   49.5287   10.6921 N.ar      1 MOL    -0.2334
      8 C13        72.2934   49.2634   11.8037 C.ar      1 MOL     0.1153
      9 C15        71.2608   51.1439   12.9186 C.ar      1 MOL     0.0138
     10 C14        72.1564   50.0677   12.9428 C.ar      1 MOL     0.0445
     11 N16        73.1519   48.2438   11.8053 N.pl3     1 MOL    -0.3432
     12 C3         69.9763   50.7864    9.4836 C.ar      1 MOL     0.0295
     13 C2         69.0645   51.8429    9.4180 C.ar      1 MOL     0.0108
     14 C1         68.8868   52.6855   10.5163 C.ar      1 MOL    -0.0171
     15 C11        65.8660   54.6363   10.9122 C.2       1 MOL     0.0459
     16 S9         66.7321   55.8248   10.1135 S.3       1 MOL    -0.1054
     17 H161       74.1463   48.4208   11.8038 H         1 MOL     0.1442
     18 H162       72.8080   47.2942   11.8080 H         1 MOL     0.1442
@<TRIPOS>BOND
     1    2    1 ar
     2    1    7 ar
     3    1   12 ar
     4    3    2 ar
     5    2    9 ar
     6   14    3 ar
     7    4    5 1 
     8    4    6 2 
     9    4   14 1 
    10    5   15 2 
    11    6   16 1 
    12    7    8 ar
    13    8   10 ar
    14    8   11 1 
    15    9   10 ar
    16   12   13 ar
    17   13   14 ar
    18   15   16 1 
    19   17   11 1 
    20   18   11 1 
@<TRIPOS>SUBSTRUCTURE
1 MOL         1
@<TRIPOS>MOLECULE
query molecule
   18    20     1     0     0
SMALL
NO_CHARGE

@<TRIPOS>ATOM
      1 C4         70.7045   47.5350    9.0113 C.ar      1 MOL     0.0725
      2 C5         69.6476   48.2326    9.6015 C.ar      1 MOL     0.0009
      3 C6         69.8972   49.0921   10.6718 C.ar      1 MOL     0.0187
      4 C7         71.4633   50.1209   12.2404 C.2       1 MOL    -0.0112
      5 C8         70.6795   51.2131   12.4693 C.2       1 MOL     0.0163
      6 C10        72.4452   49.9690   13.1478 C.2       1 MOL     0.0538
      7 N12        70.4882   46.7179    7.9679 N.ar      1 MOL    -0.2334
      8 C13        69.2507   46.5398    7.4583 C.ar      1 MOL     0.1153
      9 C15        68.3548   48.0682    9.1036 C.ar      1 MOL     0.0138
     10 C14        68.1533   47.2082    8.0171 C.ar      1 MOL     0.0445
     11 N16        69.0741   45.7068    6.4329 N.pl3     1 MOL    -0.3432
     12 C3         72.0005   47.7047    9.4964 C.ar      1 MOL     0.0295
     13 C2         72.2492   48.5600   10.5726 C.ar      1 MOL     0.0108
     14 C1         71.1978   49.2495   11.1785 C.ar      1 MOL    -0.0171
     15 C11        70.9719   52.0019   13.5153 C.2       1 MOL     0.0459
     16 S9         72.2994   51.2786   14.2329 S.3       1 MOL    -0.1054
     17 H161       68.4921   45.9806    5.6543 H         1 MOL     0.1442
     18 H162       69.5223   44.8017    6.4346 H         1 MOL     0.1442
@<TRIPOS>BOND
     1    2    1 ar
     2    1    7 ar
     3    1   12 ar
     4    3    2 ar
     5    2    9 ar
     6   14    3 ar
     7    4    5 1 
     8    4    6 2 
     9    4   14 1 
    10    5   15 2 
    11    6   16 1 
    12    7    8 ar
    13    8   10 ar
    14    8   11 1 
    15    9   10 ar
    16   12   13 ar
    17   13   14 ar
    18   15   16 1 
    19   17   11 1 
    20   18   11 1 
@<TRIPOS>SUBSTRUCTURE
1 MOL         1
@<TRIPOS>MOLECULE
query molecule
   18    20     1     0     0
SMALL
NO_CHARGE

@<TRIPOS>ATOM
      1 C4         72.0769   47.6853    8.0830 C.ar      1 MOL     0.0725
      2 C5         73.1686   48.4620    8.4793 C.ar      1 MOL     0.0009
      3 C6         73.1793   49.0463    9.7462 C.ar      1 MOL     0.0187
      4 C7         72.1007   49.4477   11.9018 C.2       1 MOL    -0.0112
      5 C8         72.6630   48.7960   12.9596 C.2       1 MOL     0.0163
      6 C10        71.6201   50.6639   12.2187 C.2       1 MOL     0.0538
      7 N12        72.0559   47.0984    6.8755 N.ar      1 MOL    -0.2334
      8 C13        73.0793   47.2400    6.0064 C.ar      1 MOL     0.1153
      9 C15        74.2413   48.6338    7.6041 C.ar      1 MOL     0.0138
     10 C14        74.1953   48.0149    6.3488 C.ar      1 MOL     0.0445
     11 N16        73.0134   46.6559    4.8102 N.pl3     1 MOL    -0.3432
     12 C3         71.0075   47.4997    8.9580 C.ar      1 MOL     0.0295
     13 C2         71.0152   48.0906   10.2239 C.ar      1 MOL     0.0108
     14 C1         72.0944   48.8806   10.6229 C.ar      1 MOL    -0.0171
     15 C11        72.6562   49.3988   14.1589 C.2       1 MOL     0.0459
     16 S9         71.9108   50.8724   13.8878 S.3       1 MOL    -0.1054
     17 H161       73.8149   46.1621    4.4444 H         1 MOL     0.1442
     18 H162       72.1618   46.7070    4.2695 H         1 MOL     0.1442
@<TRIPOS>BOND
     1    2    1 ar
     2    1    7 ar
     3    1   12 ar
     4    3    2 ar
     5    2    9 ar
     6   14    3 ar
     7    4    5 1 
     8    4    6 2 
     9    4   14 1 
    10    5   15 2 
    11    6   16 1 
    12    7    8 ar
    13    8   10 ar
    14    8   11 1 
    15    9   10 ar
    16   12   13 ar
    17   13   14 ar
    18   15   16 1 
    19   17   11 1 
    20   18   11 1 
@<TRIPOS>SUBSTRUCTURE
1 MOL         1
@<TRIPOS>MOLECULE
query molecule
   18    20     1     0     0
SMALL
NO_CHARGE

@<TRIPOS>ATOM
      1 C4         69.1967   50.4619   11.3757 C.ar      1 MOL     0.0725
      2 C5         70.4425   50.8632   11.8644 C.ar      1 MOL     0.0009
      3 C6         71.5977   50.5734   11.1377 C.ar      1 MOL     0.0187
      4 C7         72.6753   49.5809    9.1819 C.2       1 MOL    -0.0112
      5 C8         73.4191   48.4645    9.4273 C.2       1 MOL     0.0163
      6 C10        73.1368   50.3139    8.1522 C.2       1 MOL     0.0538
      7 N12        68.0714   50.7480   12.0502 N.ar      1 MOL    -0.2334
      8 C13        68.1039   51.4252   13.2178 C.ar      1 MOL     0.1153
      9 C15        70.5134   51.5602   13.0708 C.ar      1 MOL     0.0138
     10 C14        69.3269   51.8441   13.7581 C.ar      1 MOL     0.0445
     11 N16        66.9666   51.6748   13.8664 N.pl3     1 MOL    -0.3432
     12 C3         69.1183   49.7759   10.1645 C.ar      1 MOL     0.0295
     13 C2         70.2756   49.4796    9.4403 C.ar      1 MOL     0.0108
     14 C1         71.5259   49.8630    9.9280 C.ar      1 MOL    -0.0171
     15 C11        74.5007   48.2367    8.6658 C.2       1 MOL     0.0459
     16 S9         74.5312   49.5112    7.5818 S.3       1 MOL    -0.1054
     17 H161       66.7972   52.5918   14.2542 H         1 MOL     0.1442
     18 H162       66.2741   50.9469   13.9700 H         1 MOL     0.1442
@<TRIPOS>BOND
     1    2    1 ar
     2    1    7 ar
     3    1   12 ar
     4    3    2 ar
     5    2    9 ar
     6   14    3 ar
     7    4    5 1 
     8    4    6 2 
     9    4   14 1 
    10    5   15 2 
    11    6   16 1 
    12    7    8 ar
    13    8   10 ar
    14    8   11 1 
    15    9   10 ar
    16   12   13 ar
    17   13   14 ar
    18   15   16 1 
    19   17   11 1 
    20   18   11 1 
@<TRIPOS>SUBSTRUCTURE
1 MOL         1
@<TRIPOS>MOLECULE
query molecule
   18    20     1     0     0
SMALL
NO_CHARGE

@<TRIPOS>ATOM
      1 C4         67.6259   49.9825    9.5472 C.ar      1 MOL     0.0725
      2 C5         68.2647   50.5249   10.6651 C.ar      1 MOL     0.0009
      3 C6         69.6057   50.2269   10.9089 C.ar      1 MOL     0.0187
      4 C7         71.6674   49.0764   10.2788 C.2       1 MOL    -0.0112
      5 C8         72.0415   48.1190   11.1750 C.2       1 MOL     0.0163
      6 C10        72.7061   49.6407    9.6360 C.2       1 MOL     0.0538
      7 N12        66.3414   50.2724    9.2841 N.ar      1 MOL    -0.2334
      8 C13        65.6258   51.0890   10.0865 C.ar      1 MOL     0.1153
      9 C15        67.5535   51.3686   11.5187 C.ar      1 MOL     0.0138
     10 C14        66.2142   51.6537   11.2258 C.ar      1 MOL     0.0445
     11 N16        64.3480   51.3388    9.8012 N.pl3     1 MOL    -0.3432
     12 C3         68.3347   49.1486    8.6835 C.ar      1 MOL     0.0295
     13 C2         69.6756   48.8447    8.9316 C.ar      1 MOL     0.0108
     14 C1         70.3179   49.3695   10.0541 C.ar      1 MOL    -0.0171
     15 C11        73.3505   47.8682   11.3335 C.2       1 MOL     0.0459
     16 S9         74.1125   48.9019   10.2604 S.3       1 MOL    -0.1054
     17 H161       63.9933   51.1584    8.8729 H         1 MOL     0.1442
     18 H162       63.7346   51.7084   10.5132 H         1 MOL     0.1442
@<TRIPOS>BOND
     1    2    1 ar
     2    1    7 ar
     3    1   12 ar
     4    3    2 ar
     5    2    9 ar
     6   14    3 ar
     7    4    5 1 
     8    4    6 2 
     9    4   14 1 
    10    5   15 2 
    11    6   16 1 
    12    7    8 ar
    13    8   10 ar
    14    8   11 1 
    15    9   10 ar
    16   12   13 ar
    17   13   14 ar
    18   15   16 1 
    19   17   11 1 
    20   18   11 1 
@<TRIPOS>SUBSTRUCTURE
1 MOL         1
@<TRIPOS>MOLECULE
query molecule
   18    20     1     0     0
SMALL
NO_CHARGE

@<TRIPOS>ATOM
      1 C4         64.0374   48.2095   13.9176 C.ar      1 MOL     0.0725
      2 C5         64.1544   46.8174   13.9366 C.ar      1 MOL     0.0009
      3 C6         63.8838   46.0838   12.7811 C.ar      1 MOL     0.0187
      4 C7         63.2156   46.0038   10.4320 C.2       1 MOL    -0.0112
      5 C8         61.9557   45.9228    9.9165 C.2       1 MOL     0.0163
      6 C10        64.1395   45.3723    9.6849 C.2       1 MOL     0.0538
      7 N12        64.3121   48.9353   15.0134 N.ar      1 MOL    -0.2334
      8 C13        64.7044   48.3498   16.1650 C.ar      1 MOL     0.1153
      9 C15        64.5524   46.1790   15.1115 C.ar      1 MOL     0.0138
     10 C14        64.8301   46.9565   16.2425 C.ar      1 MOL     0.0445
     11 N16        64.9512   49.1033   17.2364 N.pl3     1 MOL    -0.3432
     12 C3         63.6522   48.8542   12.7430 C.ar      1 MOL     0.0295
     13 C2         63.3745   48.1190   11.5880 C.ar      1 MOL     0.0108
     14 C1         63.4738   46.7269   11.6015 C.ar      1 MOL    -0.0171
     15 C11        61.7728   45.2309    8.7809 C.2       1 MOL     0.0459
     16 S9         63.3004   44.6892    8.3646 S.3       1 MOL    -0.1054
     17 H161       65.1153   50.0942   17.1300 H         1 MOL     0.1442
     18 H162       64.9740   48.6834   18.1546 H         1 MOL     0.1442
@<TRIPOS>BOND
     1    2    1 ar
     2    1    7 ar
     3    1   12 ar
     4    3    2 ar
     5    2    9 ar
     6   14    3 ar
     7    4    5 1 
     8    4    6 2 
     9    4   14 1 
    10    5   15 2 
    11    6   16 1 
    12    7    8 ar
    13    8   10 ar
    14    8   11 1 
    15    9   10 ar
    16   12   13 ar
    17   13   14 ar
    18   15   16 1 
    19   17   11 1 
    20   18   11 1 
@<TRIPOS>SUBSTRUCTURE
1 MOL         1
@<TRIPOS>MOLECULE
query molecule
   18    20     1     0     0
SMALL
NO_CHARGE

@<TRIPOS>ATOM
      1 C4         67.0192   53.4665   11.6537 C.ar      1 MOL     0.0725
      2 C5         68.1699   53.8384   10.9542 C.ar      1 MOL     0.0009
      3 C6         69.3457   53.1047   11.1151 C.ar      1 MOL     0.0187
      4 C7         70.5613   51.2530   12.1471 C.2       1 MOL    -0.0112
      5 C8         71.2306   51.2291   13.3351 C.2       1 MOL     0.0163
      6 C10        71.1123   50.4624   11.2081 C.2       1 MOL     0.0538
      7 N12        65.8725   54.1477   11.4980 N.ar      1 MOL    -0.2334
      8 C13        65.7924   55.2104   10.6691 C.ar      1 MOL     0.1153
      9 C15        68.1243   54.9350   10.0931 C.ar      1 MOL     0.0138
     10 C14        66.9183   55.6320    9.9495 C.ar      1 MOL     0.0445
     11 N16        64.6406   55.8714   10.5548 N.pl3     1 MOL    -0.3432
     12 C3         67.0552   52.3640   12.5063 C.ar      1 MOL     0.0295
     13 C2         68.2344   51.6336   12.6727 C.ar      1 MOL     0.0108
     14 C1         69.3930   52.0066   11.9898 C.ar      1 MOL    -0.0171
     15 C11        72.3349   50.4722   13.4316 C.2       1 MOL     0.0459
     16 S9         72.4880   49.7532   11.9282 S.3       1 MOL    -0.1054
     17 H161       63.7782   55.4387   10.8534 H         1 MOL     0.1442
     18 H162       64.6302   56.8049   10.1696 H         1 MOL     0.1442
@<TRIPOS>BOND
     1    2    1 ar
     2    1    7 ar
     3    1   12 ar
     4    3    2 ar
     5    2    9 ar
     6   14    3 ar
     7    4    5 1 
     8    4    6 2 
     9    4   14 1 
    10    5   15 2 
    11    6   16 1 
    12    7    8 ar
    13    8   10 ar
    14    8   11 1 
    15    9   10 ar
    16   12   13 ar
    17   13   14 ar
    18   15   16 1 
    19   17   11 1 
    20   18   11 1 
@<TRIPOS>SUBSTRUCTURE
1 MOL         1
@<TRIPOS>MOLECULE
query molecule
   18    20     1     0     0
SMALL
NO_CHARGE

@<TRIPOS>ATOM
      1 C4         72.1915   48.3803    7.9283 C.ar      1 MOL     0.0725
      2 C5         73.3722   48.9349    8.4286 C.ar      1 MOL     0.0009
      3 C6         73.5023   49.1670    9.7982 C.ar      1 MOL     0.0187
      4 C7         72.5753   49.0814   12.0575 C.2       1 MOL    -0.0112
      5 C8         72.6135   50.3422   12.5759 C.2       1 MOL     0.0163
      6 C10        72.6218   48.1173   12.9950 C.2       1 MOL     0.0538
      7 N12        72.0538   48.1312    6.6160 N.ar      1 MOL    -0.2334
      8 C13        73.0423   48.4093    5.7395 C.ar      1 MOL     0.1153
      9 C15        74.4123   49.2397    7.5503 C.ar      1 MOL     0.0138
     10 C14        74.2443   48.9743    6.1857 C.ar      1 MOL     0.0445
     11 N16        72.8608   48.1636    4.4421 N.pl3     1 MOL    -0.3432
     12 C3         71.1532   48.0620    8.8026 C.ar      1 MOL     0.0295
     13 C2         71.2810   48.3009   10.1731 C.ar      1 MOL     0.0108
     14 C1         72.4507   48.8687   10.6803 C.ar      1 MOL    -0.0171
     15 C11        72.7145   50.4834   13.9069 C.2       1 MOL     0.0459
     16 S9         72.7376   48.9180   14.4981 S.3       1 MOL    -0.1054
     17 H161       72.6975   47.2187    4.1251 H         1 MOL     0.1442
     18 H162       72.8865   48.9224    3.7760 H         1 MOL     0.1442
@<TRIPOS>BOND
     1    2    1 ar
     2    1    7 ar
     3    1   12 ar
     4    3    2 ar
     5    2    9 ar
     6   14    3 ar
     7    4    5 1 
     8    4    6 2 
     9    4   14 1 
    10    5   15 2 
    11    6   16 1 
    12    7    8 ar
    13    8   10 ar
    14    8   11 1 
    15    9   10 ar
    16   12   13 ar
    17   13   14 ar
    18   15   16 1 
    19   17   11 1 
    20   18   11 1 
@<TRIPOS>SUBSTRUCTURE
1 MOL         1
@<TRIPOS>MOLECULE
query molecule
   18    20     1     0     0
SMALL
NO_CHARGE

@<TRIPOS>ATOM
      1 C4         71.5132   50.6022   11.7899 C.ar      1 MOL     0.0725
      2 C5         72.5992   49.7809   12.1030 C.ar      1 MOL     0.0009
      3 C6         73.2652   49.0958   11.0864 C.ar      1 MOL     0.0187
      4 C7         73.5134   48.5362    8.7206 C.2       1 MOL    -0.0112
      5 C8         73.4563   47.1784    8.6072 C.2       1 MOL     0.0163
      6 C10        74.2200   49.1245    7.7383 C.2       1 MOL     0.0538
      7 N12        70.8710   51.2852   12.7513 N.ar      1 MOL    -0.2334
      8 C13        71.2466   51.2003   14.0453 C.ar      1 MOL     0.1153
      9 C15        73.0110   49.6657   13.4310 C.ar      1 MOL     0.0138
     10 C14        72.3238   50.3848   14.4166 C.ar      1 MOL     0.0445
     11 N16        70.5729   51.8803   14.9728 N.pl3     1 MOL    -0.3432
     12 C3         71.1048   50.7312   10.4632 C.ar      1 MOL     0.0295
     13 C2         71.7673   50.0397    9.4460 C.ar      1 MOL     0.0108
     14 C1         72.8436   49.2050    9.7509 C.ar      1 MOL    -0.0171
     15 C11        74.1034   46.5944    7.5865 C.2       1 MOL     0.0459
     16 S9         74.7884   47.8637    6.7378 S.3       1 MOL    -0.1054
     17 H161       70.5404   52.8890   14.9353 H         1 MOL     0.1442
     18 H162       70.0949   51.3867   15.7131 H         1 MOL     0.1442
@<TRIPOS>BOND
     1    2    1 ar
     2    1    7 ar
     3    1   12 ar
     4    3    2 ar
     5    2    9 ar
     6   14    3 ar
     7    4    5 1 
     8    4    6 2 
     9    4   14 1 
    10    5   15 2 
    11    6   16 1 
    12    7    8 ar
    13    8   10 ar
    14    8   11 1 
    15    9   10 ar
    16   12   13 ar
    17   13   14 ar
    18   15   16 1 
    19   17   11 1 
    20   18   11 1 
@<TRIPOS>SUBSTRUCTURE
1 MOL         1
@<TRIPOS>MOLECULE
query molecule
   18    20     1     0     0
SMALL
NO_CHARGE

@<TRIPOS>ATOM
      1 C4         68.0579   47.8197    6.9598 C.ar      1 MOL     0.0725
      2 C5         68.9890   46.9691    7.5611 C.ar      1 MOL     0.0009
      3 C6         70.3212   47.3686    7.6725 C.ar      1 MOL     0.0187
      4 C7         72.0730   49.0283    7.2883 C.2       1 MOL    -0.0112
      5 C8         72.9754   48.8075    6.2899 C.2       1 MOL     0.0163
      6 C10        72.5858   49.7079    8.3303 C.2       1 MOL     0.0538
      7 N12        66.7674   47.4621    6.8602 N.ar      1 MOL    -0.2334
      8 C13        66.3278   46.2754    7.3305 C.ar      1 MOL     0.1153
      9 C15        68.5703   45.7328    8.0534 C.ar      1 MOL     0.0138
     10 C14        67.2202   45.3803    7.9351 C.ar      1 MOL     0.0445
     11 N16        65.0423   45.9493    7.1973 N.pl3     1 MOL    -0.3432
     12 C3         68.4679   49.0617    6.4771 C.ar      1 MOL     0.0295
     13 C2         69.8032   49.4587    6.5825 C.ar      1 MOL     0.0108
     14 C1         70.7435   48.6095    7.1678 C.ar      1 MOL    -0.0171
     15 C11        74.2320   49.2496    6.4546 C.2       1 MOL     0.0459
     16 S9         74.2252   49.9963    7.9522 S.3       1 MOL    -0.1054
     17 H161       64.3301   46.5120    7.6401 H         1 MOL     0.1442
     18 H162       64.7806   45.1395    6.6534 H         1 MOL     0.1442
@<TRIPOS>BOND
     1    2    1 ar
     2    1    7 ar
     3    1   12 ar
     4    3    2 ar
     5    2    9 ar
     6   14    3 ar
     7    4    5 1 
     8    4    6 2 
     9    4   14 1 
    10    5   15 2 
    11    6   16 1 
    12    7    8 ar
    13    8   10 ar
    14    8   11 1 
    15    9   10 ar
    16   12   13 ar
    17   13   14 ar
    18   15   16 1 
    19   17   11 1 
    20   18   11 1 
@<TRIPOS>SUBSTRUCTURE
1 MOL         1
@<TRIPOS>MOLECULE
query molecule
   18    20     1     0     0
SMALL
NO_CHARGE

@<TRIPOS>ATOM
      1 C4         62.7934   47.0772   12.4758 C.ar      1 MOL     0.0725
      2 C5         63.7314   46.0852   12.7725 C.ar      1 MOL     0.0009
      3 C6         64.3268   46.0501   14.0338 C.ar      1 MOL     0.0187
      4 C7         64.5879   46.9801   16.2784 C.2       1 MOL    -0.0112
      5 C8         64.9353   48.1285   16.9266 C.2       1 MOL     0.0163
      6 C10        64.8155   45.8690   17.0023 C.2       1 MOL     0.0538
      7 N12        62.1947   47.1168   11.2745 N.ar      1 MOL    -0.2334
      8 C13        62.4784   46.2086   10.3167 C.ar      1 MOL     0.1153
      9 C15        64.0524   45.1337   11.8041 C.ar      1 MOL     0.0138
     10 C14        63.4176   45.1972   10.5576 C.ar      1 MOL     0.0445
     11 N16        61.8757   46.2918    9.1307 N.pl3     1 MOL    -0.3432
     12 C3         62.4593   48.0235   13.4436 C.ar      1 MOL     0.0295
     13 C2         63.0607   47.9925   14.7042 C.ar      1 MOL     0.0108
     14 C1         64.0100   47.0145   15.0047 C.ar      1 MOL    -0.0171
     15 C11        65.4679   48.0333   18.1550 C.2       1 MOL     0.0459
     16 S9         65.4936   46.3917   18.4791 S.3       1 MOL    -0.1054
     17 H161       61.6738   47.1962    8.7292 H         1 MOL     0.1442
     18 H162       61.6209   45.4503    8.6337 H         1 MOL     0.1442
@<TRIPOS>BOND
     1    2    1 ar
     2    1    7 ar
     3    1   12 ar
     4    3    2 ar
     5    2    9 ar
     6   14    3 ar
     7    4    5 1 
     8    4    6 2 
     9    4   14 1 
    10    5   15 2 
    11    6   16 1 
    12    7    8 ar
    13    8   10 ar
    14    8   11 1 
    15    9   10 ar
    16   12   13 ar
    17   13   14 ar
    18   15   16 1 
    19   17   11 1 
    20   18   11 1 
@<TRIPOS>SUBSTRUCTURE
1 MOL         1
@<TRIPOS>MOLECULE
query molecule
   18    20     1     0     0
SMALL
NO_CHARGE

@<TRIPOS>ATOM
      1 C4         72.2563   49.7751    9.8815 C.ar      1 MOL     0.0725
      2 C5         72.6079   49.0557   11.0264 C.ar      1 MOL     0.0009
      3 C6         73.7232   48.2179   11.0027 C.ar      1 MOL     0.0187
      4 C7         75.6173   47.2477    9.8014 C.2       1 MOL    -0.0112
      5 C8         75.5115   45.8989    9.9718 C.2       1 MOL     0.0163
      6 C10        76.8763   47.6585    9.5636 C.2       1 MOL     0.0538
      7 N12        71.1980   50.6015    9.8895 N.ar      1 MOL    -0.2334
      8 C13        70.4394   50.7625   10.9947 C.ar      1 MOL     0.1153
      9 C15        71.8427   49.1940   12.1847 C.ar      1 MOL     0.0138
     10 C14        70.7417   50.0591   12.1681 C.ar      1 MOL     0.0445
     11 N16        69.3865   51.5790   10.9578 N.pl3     1 MOL    -0.3432
     12 C3         73.0243   49.6505    8.7246 C.ar      1 MOL     0.0295
     13 C2         74.1371   48.8062    8.6988 C.ar      1 MOL     0.0108
     14 C1         74.4871   48.0719    9.8329 C.ar      1 MOL    -0.0171
     15 C11        76.6288   45.1573    9.9120 C.2       1 MOL     0.0459
     16 S9         77.8509   46.2575    9.6012 S.3       1 MOL    -0.1054
     17 H161       68.8291   51.6466   10.1183 H         1 MOL     0.1442
     18 H162       69.1461   52.1300   11.7694 H         1 MOL     0.1442
@<TRIPOS>BOND
     1    2    1 ar
     2    1    7 ar
     3    1   12 ar
     4    3    2 ar
     5    2    9 ar
     6   14    3 ar
     7    4    5 1 
     8    4    6 2 
     9    4   14 1 
    10    5   15 2 
    11    6   16 1 
    12    7    8 ar
    13    8   10 ar
    14    8   11 1 
    15    9   10 ar
    16   12   13 ar
    17   13   14 ar
    18   15   16 1 
    19   17   11 1 
    20   18   11 1 
@<TRIPOS>SUBSTRUCTURE
1 MOL         1
@<TRIPOS>MOLECULE
query molecule
   18    20     1     0     0
SMALL
NO_CHARGE

@<TRIPOS>ATOM
      1 C4         63.9814   48.5099   14.0536 C.ar      1 MOL     0.0725
      2 C5         64.0213   47.1186   14.1746 C.ar      1 MOL     0.0009
      3 C6         63.7717   46.3189   13.0589 C.ar      1 MOL     0.0187
      4 C7         63.2234   46.1054   10.6871 C.2       1 MOL    -0.0112
      5 C8         62.2745   46.4503    9.7704 C.2       1 MOL     0.0163
      6 C10        63.9020   44.9907   10.3592 C.2       1 MOL     0.0538
      7 N12        64.2377   49.2972   15.1107 N.ar      1 MOL    -0.2334
      8 C13        64.5371   48.7764   16.3198 C.ar      1 MOL     0.1153
      9 C15        64.3222   46.5464   15.4108 C.ar      1 MOL     0.0138
     10 C14        64.5826   47.3876   16.4996 C.ar      1 MOL     0.0445
     11 N16        64.7684   49.5911   17.3491 N.pl3     1 MOL    -0.3432
     12 C3         63.6935   49.0878   12.8179 C.ar      1 MOL     0.0295
     13 C2         63.4367   48.2869   11.7024 C.ar      1 MOL     0.0108
     14 C1         63.4593   46.8961   11.8169 C.ar      1 MOL    -0.0171
     15 C11        62.1069   45.6628    8.6964 C.2       1 MOL     0.0459
     16 S9         63.2413   44.4465    8.8823 S.3       1 MOL    -0.1054
     17 H161       64.2460   50.4506   17.4401 H         1 MOL     0.1442
     18 H162       65.4660   49.3488   18.0380 H         1 MOL     0.1442
@<TRIPOS>BOND
     1    2    1 ar
     2    1    7 ar
     3    1   12 ar
     4    3    2 ar
     5    2    9 ar
     6   14    3 ar
     7    4    5 1 
     8    4    6 2 
     9    4   14 1 
    10    5   15 2 
    11    6   16 1 
    12    7    8 ar
    13    8   10 ar
    14    8   11 1 
    15    9   10 ar
    16   12   13 ar
    17   13   14 ar
    18   15   16 1 
    19   17   11 1 
    20   18   11 1 
@<TRIPOS>SUBSTRUCTURE
1 MOL         1
@<TRIPOS>MOLECULE
query molecule
   18    20     1     0     0
SMALL
NO_CHARGE

@<TRIPOS>ATOM
      1 C4         73.9071   48.9532    7.1930 C.ar      1 MOL     0.0725
      2 C5         72.5284   49.1306    7.0526 C.ar      1 MOL     0.0009
      3 C6         71.7705   49.5586    8.1430 C.ar      1 MOL     0.0187
      4 C7         71.6278   50.2391   10.4856 C.2       1 MOL    -0.0112
      5 C8         71.9324   49.8422   11.7542 C.2       1 MOL     0.0163
      6 C10        70.6009   51.1068   10.4299 C.2       1 MOL     0.0538
      7 N12        74.6572   48.5606    6.1507 N.ar      1 MOL    -0.2334
      8 C13        74.1094   48.3215    4.9401 C.ar      1 MOL     0.1153
      9 C15        71.9284   48.8873    5.8168 C.ar      1 MOL     0.0138
     10 C14        72.7304   48.4754    4.7454 C.ar      1 MOL     0.0445
     11 N16        74.8849   47.9165    3.9346 N.pl3     1 MOL    -0.3432
     12 C3         74.5144   49.2067    8.4221 C.ar      1 MOL     0.0295
     13 C2         73.7544   49.6286    9.5158 C.ar      1 MOL     0.0108
     14 C1         72.3743   49.7939    9.3893 C.ar      1 MOL    -0.0171
     15 C11        71.1924   50.3181   12.7680 C.2       1 MOL     0.0459
     16 S9         70.0789   51.3329   12.0394 S.3       1 MOL    -0.1054
     17 H161       75.8764   47.7912    4.0803 H         1 MOL     0.1442
     18 H162       74.4809   47.7348    3.0269 H         1 MOL     0.1442
@<TRIPOS>BOND
     1    2    1 ar
     2    1    7 ar
     3    1   12 ar
     4    3    2 ar
     5    2    9 ar
     6   14    3 ar
     7    4    5 1 
     8    4    6 2 
     9    4   14 1 
    10    5   15 2 
    11    6   16 1 
    12    7    8 ar
    13    8   10 ar
    14    8   11 1 
    15    9   10 ar
    16   12   13 ar
    17   13   14 ar
    18   15   16 1 
    19   17   11 1 
    20   18   11 1 
@<TRIPOS>SUBSTRUCTURE
1 MOL         1
@<TRIPOS>MOLECULE
query molecule
   18    20     1     0     0
SMALL
NO_CHARGE

@<TRIPOS>ATOM
      1 C4         73.9072   48.9531    7.1931 C.ar      1 MOL     0.0725
      2 C5         72.5227   49.0975    7.0732 C.ar      1 MOL     0.0009
      3 C6         71.7719   49.5136    8.1730 C.ar      1 MOL     0.0187
      4 C7         71.6494   50.2033   10.5141 C.2       1 MOL    -0.0112
      5 C8         72.0711   49.9538   11.7868 C.2       1 MOL     0.0163
      6 C10        70.5146   50.9242   10.4597 C.2       1 MOL     0.0538
      7 N12        74.6501   48.5725    6.1413 N.ar      1 MOL    -0.2334
      8 C13        74.0895   48.3141    4.9406 C.ar      1 MOL     0.1153
      9 C15        71.9096   48.8336    5.8481 C.ar      1 MOL     0.0138
     10 C14        72.7045   48.4348    4.7665 C.ar      1 MOL     0.0445
     11 N16        74.8587   47.9219    3.9252 N.pl3     1 MOL    -0.3432
     12 C3         74.5272   49.2273    8.4113 C.ar      1 MOL     0.0295
     13 C2         73.7745   49.6372    9.5146 C.ar      1 MOL     0.0108
     14 C1         72.3891   49.7696    9.4086 C.ar      1 MOL    -0.0171
     15 C11        71.3294   50.4118   12.8075 C.2       1 MOL     0.0459
     16 S9         70.0535   51.2120   12.0778 S.3       1 MOL    -0.1054
     17 H161       75.5374   48.5574    3.5309 H         1 MOL     0.1442
     18 H162       74.7628   46.9890    3.5501 H         1 MOL     0.1442
@<TRIPOS>BOND
     1    2    1 ar
     2    1    7 ar
     3    1   12 ar
     4    3    2 ar
     5    2    9 ar
     6   14    3 ar
     7    4    5 1 
     8    4    6 2 
     9    4   14 1 
    10    5   15 2 
    11    6   16 1 
    12    7    8 ar
    13    8   10 ar
    14    8   11 1 
    15    9   10 ar
    16   12   13 ar
    17   13   14 ar
    18   15   16 1 
    19   17   11 1 
    20   18   11 1 
@<TRIPOS>SUBSTRUCTURE
1 MOL         1
@<TRIPOS>MOLECULE
query molecule
   18    20     1     0     0
SMALL
NO_CHARGE

@<TRIPOS>ATOM
      1 C4         70.3476   50.7170   12.1570 C.ar      1 MOL     0.0725
      2 C5         70.0516   50.4487   10.8183 C.ar      1 MOL     0.0009
      3 C6         71.0578   49.9978    9.9634 C.ar      1 MOL     0.0187
      4 C7         73.3868   49.3623    9.5846 C.2       1 MOL    -0.0112
      5 C8         73.8882   48.1010    9.7164 C.2       1 MOL     0.0163
      6 C10        73.9297   50.0483    8.5623 C.2       1 MOL     0.0538
      7 N12        69.3892   51.1333   13.0006 N.ar      1 MOL    -0.2334
      8 C13        68.1161   51.3096   12.5872 C.ar      1 MOL     0.1153
      9 C15        68.7473   50.6253   10.3559 C.ar      1 MOL     0.0138
     10 C14        67.7656   51.0635   11.2532 C.ar      1 MOL     0.0445
     11 N16        67.1969   51.7407   13.4508 N.pl3     1 MOL    -0.3432
     12 C3         71.6464   50.5306   12.6280 C.ar      1 MOL     0.0295
     13 C2         72.6555   50.0857   11.7703 C.ar      1 MOL     0.0108
     14 C1         72.3728   49.8296   10.4278 C.ar      1 MOL    -0.0171
     15 C11        74.8466   47.7018    8.8656 C.2       1 MOL     0.0459
     16 S9         75.0819   49.0102    7.8491 S.3       1 MOL    -0.1054
     17 H161       67.2535   51.4746   14.4234 H         1 MOL     0.1442
     18 H162       66.4437   52.3336   13.1325 H         1 MOL     0.1442
@<TRIPOS>BOND
     1    2    1 ar
     2    1    7 ar
     3    1   12 ar
     4    3    2 ar
     5    2    9 ar
     6   14    3 ar
     7    4    5 1 
     8    4    6 2 
     9    4   14 1 
    10    5   15 2 
    11    6   16 1 
    12    7    8 ar
    13    8   10 ar
    14    8   11 1 
    15    9   10 ar
    16   12   13 ar
    17   13   14 ar
    18   15   16 1 
    19   17   11 1 
    20   18   11 1 
@<TRIPOS>SUBSTRUCTURE
1 MOL         1
@<TRIPOS>MOLECULE
query molecule
   18    20     1     0     0
SMALL
NO_CHARGE

@<TRIPOS>ATOM
      1 C4         69.1806   51.0997   12.6567 C.ar      1 MOL     0.0725
      2 C5         68.6482   50.7395   11.4163 C.ar      1 MOL     0.0009
      3 C6         69.5032   50.4807   10.3445 C.ar      1 MOL     0.0187
      4 C7         71.7635   50.3256    9.4289 C.2       1 MOL    -0.0112
      5 C8         73.0023   49.7992    9.6477 C.2       1 MOL     0.0163
      6 C10        71.4786   50.4956    8.1248 C.2       1 MOL     0.0538
      7 N12        68.3758   51.3340   13.7058 N.ar      1 MOL    -0.2334
      8 C13        67.0336   51.2343   13.5991 C.ar      1 MOL     0.1153
      9 C15        67.2651   50.6322   11.2690 C.ar      1 MOL     0.0138
     10 C14        66.4459   50.8846   12.3762 C.ar      1 MOL     0.0445
     11 N16        66.2676   51.4917   14.6590 N.pl3     1 MOL    -0.3432
     12 C3         70.5625   51.1965   12.8135 C.ar      1 MOL     0.0295
     13 C2         71.4182   50.9441   11.7383 C.ar      1 MOL     0.0108
     14 C1         70.8952   50.5985   10.4914 C.ar      1 MOL    -0.0171
     15 C11        73.7835   49.5404    8.5873 C.2       1 MOL     0.0459
     16 S9         72.8588   49.9791    7.2633 S.3       1 MOL    -0.1054
     17 H161       66.3598   52.3710   15.1472 H         1 MOL     0.1442
     18 H162       65.5949   50.8073   14.9740 H         1 MOL     0.1442
@<TRIPOS>BOND
     1    2    1 ar
     2    1    7 ar
     3    1   12 ar
     4    3    2 ar
     5    2    9 ar
     6   14    3 ar
     7    4    5 1 
     8    4    6 2 
     9    4   14 1 
    10    5   15 2 
    11    6   16 1 
    12    7    8 ar
    13    8   10 ar
    14    8   11 1 
    15    9   10 ar
    16   12   13 ar
    17   13   14 ar
    18   15   16 1 
    19   17   11 1 
    20   18   11 1 
@<TRIPOS>SUBSTRUCTURE
1 MOL         1
@<TRIPOS>MOLECULE
query molecule
   18    20     1     0     0
SMALL
NO_CHARGE

@<TRIPOS>ATOM
      1 C4         69.9519   47.8567    9.2825 C.ar      1 MOL     0.0725
      2 C5         71.2598   47.4609    9.5738 C.ar      1 MOL     0.0009
      3 C6         71.9239   48.0157   10.6682 C.ar      1 MOL     0.0187
      4 C7         71.9496   49.5369   12.5804 C.2       1 MOL    -0.0112
      5 C8         71.9089   50.8774   12.8272 C.2       1 MOL     0.0163
      6 C10        72.6190   48.8417   13.5181 C.2       1 MOL     0.0538
      7 N12        69.2886   47.3205    8.2454 N.ar      1 MOL    -0.2334
      8 C13        69.8588   46.3897    7.4510 C.ar      1 MOL     0.1153
      9 C15        71.8816   46.5049    8.7703 C.ar      1 MOL     0.0138
     10 C14        71.1712   45.9624    7.6923 C.ar      1 MOL     0.0445
     11 N16        69.1737   45.8939    6.4207 N.pl3     1 MOL    -0.3432
     12 C3         69.3208   48.8025   10.0892 C.ar      1 MOL     0.0295
     13 C2         69.9883   49.3632   11.1809 C.ar      1 MOL     0.0108
     14 C1         71.3002   48.9853   11.4707 C.ar      1 MOL    -0.0171
     15 C11        72.5346   51.3460   13.9184 C.2       1 MOL     0.0459
     16 S9         73.1763   49.9870   14.6546 S.3       1 MOL    -0.1054
     17 H161       68.9136   44.9181    6.4099 H         1 MOL     0.1442
     18 H162       68.9147   46.4941    5.6508 H         1 MOL     0.1442
@<TRIPOS>BOND
     1    2    1 ar
     2    1    7 ar
     3    1   12 ar
     4    3    2 ar
     5    2    9 ar
     6   14    3 ar
     7    4    5 1 
     8    4    6 2 
     9    4   14 1 
    10    5   15 2 
    11    6   16 1 
    12    7    8 ar
    13    8   10 ar
    14    8   11 1 
    15    9   10 ar
    16   12   13 ar
    17   13   14 ar
    18   15   16 1 
    19   17   11 1 
    20   18   11 1 
@<TRIPOS>SUBSTRUCTURE
1 MOL         1
@<TRIPOS>MOLECULE
query molecule
   18    20     1     0     0
SMALL
NO_CHARGE

@<TRIPOS>ATOM
      1 C4         69.7495   47.8902    9.1542 C.ar      1 MOL     0.0725
      2 C5         70.9463   47.3314    9.6097 C.ar      1 MOL     0.0009
      3 C6         71.6138   47.9099   10.6897 C.ar      1 MOL     0.0187
      4 C7         71.7590   49.6418   12.4074 C.2       1 MOL    -0.0112
      5 C8         72.6165   48.9179   13.1823 C.2       1 MOL     0.0163
      6 C10        71.6611   50.9308   12.7809 C.2       1 MOL     0.0538
      7 N12        69.0817   47.3373    8.1288 N.ar      1 MOL    -0.2334
      8 C13        69.5414   46.2324    7.5038 C.ar      1 MOL     0.1153
      9 C15        71.4531   46.1925    8.9834 C.ar      1 MOL     0.0138
     10 C14        70.7409   45.6357    7.9140 C.ar      1 MOL     0.0445
     11 N16        68.8587   45.7234    6.4784 N.pl3     1 MOL    -0.3432
     12 C3         69.2315   49.0210    9.7839 C.ar      1 MOL     0.0295
     13 C2         69.9037   49.6043   10.8609 C.ar      1 MOL     0.0108
     14 C1         71.1076   49.0623   11.3132 C.ar      1 MOL    -0.0171
     15 C11        73.2271   49.5335   14.2069 C.2       1 MOL     0.0459
     16 S9         72.6786   51.1130   14.1393 S.3       1 MOL    -0.1054
     17 H161       68.1965   46.2983    5.9774 H         1 MOL     0.1442
     18 H162       69.0035   44.7627    6.2025 H         1 MOL     0.1442
@<TRIPOS>BOND
     1    2    1 ar
     2    1    7 ar
     3    1   12 ar
     4    3    2 ar
     5    2    9 ar
     6   14    3 ar
     7    4    5 1 
     8    4    6 2 
     9    4   14 1 
    10    5   15 2 
    11    6   16 1 
    12    7    8 ar
    13    8   10 ar
    14    8   11 1 
    15    9   10 ar
    16   12   13 ar
    17   13   14 ar
    18   15   16 1 
    19   17   11 1 
    20   18   11 1 
@<TRIPOS>SUBSTRUCTURE
1 MOL         1
@<TRIPOS>MOLECULE
query molecule
   18    20     1     0     0
SMALL
NO_CHARGE

@<TRIPOS>ATOM
      1 C4         73.6173   47.9549    9.7741 C.ar      1 MOL     0.0725
      2 C5         73.0947   49.1574    9.2915 C.ar      1 MOL     0.0009
      3 C6         72.3782   49.9942   10.1476 C.ar      1 MOL     0.0187
      4 C7         71.4544   50.4707   12.3591 C.2       1 MOL    -0.0112
      5 C8         72.0178   50.9119   13.5200 C.2       1 MOL     0.0163
      6 C10        70.2182   50.9579   12.1471 C.2       1 MOL     0.0538
      7 N12        74.3263   47.1448    8.9716 N.ar      1 MOL    -0.2334
      8 C13        74.5543   47.4591    7.6785 C.ar      1 MOL     0.1153
      9 C15        73.3068   49.5111    7.9588 C.ar      1 MOL     0.0138
     10 C14        74.0463   48.6487    7.1401 C.ar      1 MOL     0.0445
     11 N16        75.2481   46.6205    6.9092 N.pl3     1 MOL    -0.3432
     12 C3         73.4193   47.6018   11.1083 C.ar      1 MOL     0.0295
     13 C2         72.6959   48.4366   11.9636 C.ar      1 MOL     0.0108
     14 C1         72.1570   49.6325   11.4867 C.ar      1 MOL    -0.0171
     15 C11        71.3021   51.7301   14.3075 C.2       1 MOL     0.0459
     16 S9         69.8568   51.9453   13.4918 S.3       1 MOL    -0.1054
     17 H161       74.7689   45.9025    6.3848 H         1 MOL     0.1442
     18 H162       76.2530   46.7030    6.8506 H         1 MOL     0.1442
@<TRIPOS>BOND
     1    2    1 ar
     2    1    7 ar
     3    1   12 ar
     4    3    2 ar
     5    2    9 ar
     6   14    3 ar
     7    4    5 1 
     8    4    6 2 
     9    4   14 1 
    10    5   15 2 
    11    6   16 1 
    12    7    8 ar
    13    8   10 ar
    14    8   11 1 
    15    9   10 ar
    16   12   13 ar
    17   13   14 ar
    18   15   16 1 
    19   17   11 1 
    20   18   11 1 
@<TRIPOS>SUBSTRUCTURE
1 MOL         1
@<TRIPOS>MOLECULE
query molecule
   18    20     1     0     0
SMALL
NO_CHARGE

@<TRIPOS>ATOM
      1 C4         73.6117   47.9554    9.7740 C.ar      1 MOL     0.0725
      2 C5         73.0823   49.1574    9.2977 C.ar      1 MOL     0.0009
      3 C6         72.3732   49.9925   10.1617 C.ar      1 MOL     0.0187
      4 C7         71.4714   50.4658   12.3830 C.2       1 MOL    -0.0112
      5 C8         72.0460   50.9070   13.5384 C.2       1 MOL     0.0163
      6 C10        70.2323   50.9511   12.1840 C.2       1 MOL     0.0538
      7 N12        74.3138   47.1470    8.9636 N.ar      1 MOL    -0.2334
      8 C13        74.5280   47.4628    7.6685 C.ar      1 MOL     0.1153
      9 C15        73.2801   49.5125    7.9632 C.ar      1 MOL     0.0138
     10 C14        74.0125   48.6519    7.1362 C.ar      1 MOL     0.0445
     11 N16        75.2152   46.6258    6.8914 N.pl3     1 MOL    -0.3432
     12 C3         73.4280   47.6010   11.1098 C.ar      1 MOL     0.0295
     13 C2         72.7121   48.4340   11.9732 C.ar      1 MOL     0.0108
     14 C1         72.1664   49.6293   11.5028 C.ar      1 MOL    -0.0171
     15 C11        71.3371   51.7234   14.3338 C.2       1 MOL     0.0459
     16 S9         69.8832   51.9369   13.5331 S.3       1 MOL    -0.1054
     17 H161       74.9087   45.6694    6.7843 H         1 MOL     0.1442
     18 H162       76.0424   46.9480    6.4097 H         1 MOL     0.1442
@<TRIPOS>BOND
     1    2    1 ar
     2    1    7 ar
     3    1   12 ar
     4    3    2 ar
     5    2    9 ar
     6   14    3 ar
     7    4    5 1 
     8    4    6 2 
     9    4   14 1 
    10    5   15 2 
    11    6   16 1 
    12    7    8 ar
    13    8   10 ar
    14    8   11 1 
    15    9   10 ar
    16   12   13 ar
    17   13   14 ar
    18   15   16 1 
    19   17   11 1 
    20   18   11 1 
@<TRIPOS>SUBSTRUCTURE
1 MOL         1
@<TRIPOS>MOLECULE
query molecule
   18    20     1     0     0
SMALL
NO_CHARGE

@<TRIPOS>ATOM
      1 C4         67.2704   48.9189    8.6959 C.ar      1 MOL     0.0725
      2 C5         68.0949   47.7925    8.7542 C.ar      1 MOL     0.0009
      3 C6         69.3212   47.8653    9.4155 C.ar      1 MOL     0.0187
      4 C7         70.9681   49.1469   10.6871 C.2       1 MOL    -0.0112
      5 C8         71.8519   48.1083   10.6765 C.2       1 MOL     0.0163
      6 C10        71.4164   50.2222   11.3602 C.2       1 MOL     0.0538
      7 N12        66.0779   48.8642    8.0811 N.ar      1 MOL    -0.2334
      8 C13        65.6381   47.7284    7.4985 C.ar      1 MOL     0.1153
      9 C15        67.6741   46.6035    8.1581 C.ar      1 MOL     0.0138
     10 C14        66.4281   46.5714    7.5198 C.ar      1 MOL     0.0445
     11 N16        64.4560   47.7188    6.8829 N.pl3     1 MOL    -0.3432
     12 C3         67.6799   50.1066    9.3005 C.ar      1 MOL     0.0295
     13 C2         68.9110   50.1814    9.9566 C.ar      1 MOL     0.0108
     14 C1         69.7482   49.0658   10.0069 C.ar      1 MOL    -0.0171
     15 C11        73.0149   48.2519   11.3311 C.2       1 MOL     0.0459
     16 S9         72.9581   49.8015   11.9602 S.3       1 MOL    -0.1054
     17 H161       63.7039   47.1487    7.2426 H         1 MOL     0.1442
     18 H162       64.3124   48.2816    6.0566 H         1 MOL     0.1442
@<TRIPOS>BOND
     1    2    1 ar
     2    1    7 ar
     3    1   12 ar
     4    3    2 ar
     5    2    9 ar
     6   14    3 ar
     7    4    5 1 
     8    4    6 2 
     9    4   14 1 
    10    5   15 2 
    11    6   16 1 
    12    7    8 ar
    13    8   10 ar
    14    8   11 1 
    15    9   10 ar
    16   12   13 ar
    17   13   14 ar
    18   15   16 1 
    19   17   11 1 
    20   18   11 1 
@<TRIPOS>SUBSTRUCTURE
1 MOL         1
@<TRIPOS>MOLECULE
query molecule
   18    20     1     0     0
SMALL
NO_CHARGE

@<TRIPOS>ATOM
      1 C4         67.4929   49.1782    8.8649 C.ar      1 MOL     0.0725
      2 C5         68.3619   48.0879    8.9537 C.ar      1 MOL     0.0009
      3 C6         69.5276   48.1914    9.7133 C.ar      1 MOL     0.0187
      4 C7         71.0076   49.4988   11.1527 C.2       1 MOL    -0.0112
      5 C8         72.1959   48.9828   10.7267 C.2       1 MOL     0.0163
      6 C10        71.0958   50.1372   12.3338 C.2       1 MOL     0.0538
      7 N12        66.3563   49.0926    8.1549 N.ar      1 MOL    -0.2334
      8 C13        66.0174   47.9597    7.5034 C.ar      1 MOL     0.1153
      9 C15        68.0454   46.9031    8.2885 C.ar      1 MOL     0.0138
     10 C14        66.8565   46.8386    7.5516 C.ar      1 MOL     0.0445
     11 N16        64.8892   47.9197    6.7949 N.pl3     1 MOL    -0.3432
     12 C3         67.7976   50.3608    9.5375 C.ar      1 MOL     0.0295
     13 C2         68.9683   50.4667   10.2924 C.ar      1 MOL     0.0108
     14 C1         69.8501   49.3880   10.3746 C.ar      1 MOL    -0.0171
     15 C11        73.2766   49.1371   11.5077 C.2       1 MOL     0.0459
     16 S9         72.7240   50.0032   12.8287 S.3       1 MOL    -0.1054
     17 H161       64.0001   47.8296    7.2656 H         1 MOL     0.1442
     18 H162       64.9233   47.9795    5.7873 H         1 MOL     0.1442
@<TRIPOS>BOND
     1    2    1 ar
     2    1    7 ar
     3    1   12 ar
     4    3    2 ar
     5    2    9 ar
     6   14    3 ar
     7    4    5 1 
     8    4    6 2 
     9    4   14 1 
    10    5   15 2 
    11    6   16 1 
    12    7    8 ar
    13    8   10 ar
    14    8   11 1 
    15    9   10 ar
    16   12   13 ar
    17   13   14 ar
    18   15   16 1 
    19   17   11 1 
    20   18   11 1 
@<TRIPOS>SUBSTRUCTURE
1 MOL         1
@<TRIPOS>MOLECULE
query molecule
   18    20     1     0     0
SMALL
NO_CHARGE

@<TRIPOS>ATOM
      1 C4         70.4245   50.3420   11.1801 C.ar      1 MOL     0.0725
      2 C5         69.7128   50.4885    9.9868 C.ar      1 MOL     0.0009
      3 C6         68.9557   51.6399    9.7689 C.ar      1 MOL     0.0187
      4 C7         68.1405   53.8136   10.5316 C.2       1 MOL    -0.0112
      5 C8         67.0405   54.0977   11.2860 C.2       1 MOL     0.0163
      6 C10        68.4339   54.7720    9.6339 C.2       1 MOL     0.0538
      7 N12        71.1746   49.2503   11.4011 N.ar      1 MOL    -0.2334
      8 C13        71.2639   48.2612   10.4865 C.ar      1 MOL     0.1153
      9 C15        69.7783   49.4831    9.0219 C.ar      1 MOL     0.0138
     10 C14        70.5642   48.3524    9.2760 C.ar      1 MOL     0.0445
     11 N16        72.0051   47.1852   10.7502 N.pl3     1 MOL    -0.3432
     12 C3         70.3730   51.3489   12.1431 C.ar      1 MOL     0.0295
     13 C2         69.6093   52.4987   11.9277 C.ar      1 MOL     0.0108
     14 C1         68.8828   52.6471   10.7453 C.ar      1 MOL    -0.0171
     15 C11        66.3798   55.2416   11.0477 C.2       1 MOL     0.0459
     16 S9         67.2384   55.9770    9.8137 S.3       1 MOL    -0.1054
     17 H161       72.0411   46.8144   11.6889 H         1 MOL     0.1442
     18 H162       72.5308   46.7407   10.0112 H         1 MOL     0.1442
@<TRIPOS>BOND
     1    2    1 ar
     2    1    7 ar
     3    1   12 ar
     4    3    2 ar
     5    2    9 ar
     6   14    3 ar
     7    4    5 1 
     8    4    6 2 
     9    4   14 1 
    10    5   15 2 
    11    6   16 1 
    12    7    8 ar
    13    8   10 ar
    14    8   11 1 
    15    9   10 ar
    16   12   13 ar
    17   13   14 ar
    18   15   16 1 
    19   17   11 1 
    20   18   11 1 
@<TRIPOS>SUBSTRUCTURE
1 MOL         1
@<TRIPOS>MOLECULE
query molecule
   18    20     1     0     0
SMALL
NO_CHARGE

@<TRIPOS>ATOM
      1 C4         70.6878   50.2846   11.1393 C.ar      1 MOL     0.0725
      2 C5         69.9499   50.4717    9.9678 C.ar      1 MOL     0.0009
      3 C6         69.2464   51.6610    9.7749 C.ar      1 MOL     0.0187
      4 C7         68.5657   53.8704   10.5664 C.2       1 MOL    -0.0112
      5 C8         68.8638   54.6969    9.5234 C.2       1 MOL     0.0163
      6 C10        67.5460   54.3138   11.3241 C.2       1 MOL     0.0538
      7 N12        71.3874   49.1553   11.3355 N.ar      1 MOL    -0.2334
      8 C13        71.3994   48.1665   10.4164 C.ar      1 MOL     0.1153
      9 C15        69.9358   49.4680    8.9990 C.ar      1 MOL     0.0138
     10 C14        70.6701   48.2978    9.2273 C.ar      1 MOL     0.0445
     11 N16        72.0922   47.0532   10.6556 N.pl3     1 MOL    -0.3432
     12 C3         70.7159   51.2891   12.1057 C.ar      1 MOL     0.0295
     13 C2         70.0058   52.4771   11.9156 C.ar      1 MOL     0.0108
     14 C1         69.2536   52.6669   10.7554 C.ar      1 MOL    -0.0171
     15 C11        68.1564   55.8289    9.3823 C.2       1 MOL     0.0459
     16 S9         67.0535   55.7985   10.6406 S.3       1 MOL    -0.1054
     17 H161       72.3680   46.4556    9.8896 H         1 MOL     0.1442
     18 H162       72.3412   46.8072   11.6030 H         1 MOL     0.1442
@<TRIPOS>BOND
     1    2    1 ar
     2    1    7 ar
     3    1   12 ar
     4    3    2 ar
     5    2    9 ar
     6   14    3 ar
     7    4    5 1 
     8    4    6 2 
     9    4   14 1 
    10    5   15 2 
    11    6   16 1 
    12    7    8 ar
    13    8   10 ar
    14    8   11 1 
    15    9   10 ar
    16   12   13 ar
    17   13   14 ar
    18   15   16 1 
    19   17   11 1 
    20   18   11 1 
@<TRIPOS>SUBSTRUCTURE
1 MOL         1
@<TRIPOS>MOLECULE
query molecule
   18    20     1     0     0
SMALL
NO_CHARGE

@<TRIPOS>ATOM
      1 C4         68.9958   48.8628    6.9934 C.ar      1 MOL     0.0725
      2 C5         69.1997   48.0315    8.0976 C.ar      1 MOL     0.0009
      3 C6         70.4761   47.9120    8.6483 C.ar      1 MOL     0.0187
      4 C7         72.8470   48.5037    8.6454 C.2       1 MOL    -0.0112
      5 C8         73.9291   48.2078    7.8701 C.2       1 MOL     0.0163
      6 C10        73.1592   48.7247    9.9355 C.2       1 MOL     0.0538
      7 N12        67.7716   49.0065    6.4607 N.ar      1 MOL    -0.2334
      8 C13        66.7031   48.3548    6.9669 C.ar      1 MOL     0.1153
      9 C15        68.1186   47.3387    8.6430 C.ar      1 MOL     0.0138
     10 C14        66.8521   47.5018    8.0684 C.ar      1 MOL     0.0445
     11 N16        65.5071   48.5102    6.3993 N.pl3     1 MOL    -0.3432
     12 C3         70.0700   49.5673    6.4516 C.ar      1 MOL     0.0295
     13 C2         71.3493   49.4422    6.9987 C.ar      1 MOL     0.0108
     14 C1         71.5657   48.6024    8.0922 C.ar      1 MOL    -0.0171
     15 C11        75.1362   48.1460    8.4539 C.2       1 MOL     0.0459
     16 S9         74.8477   48.5081   10.0621 S.3       1 MOL    -0.1054
     17 H161       65.3829   49.1873    5.6603 H         1 MOL     0.1442
     18 H162       64.7251   47.9507    6.7083 H         1 MOL     0.1442
@<TRIPOS>BOND
     1    2    1 ar
     2    1    7 ar
     3    1   12 ar
     4    3    2 ar
     5    2    9 ar
     6   14    3 ar
     7    4    5 1 
     8    4    6 2 
     9    4   14 1 
    10    5   15 2 
    11    6   16 1 
    12    7    8 ar
    13    8   10 ar
    14    8   11 1 
    15    9   10 ar
    16   12   13 ar
    17   13   14 ar
    18   15   16 1 
    19   17   11 1 
    20   18   11 1 
@<TRIPOS>SUBSTRUCTURE
1 MOL         1
@<TRIPOS>MOLECULE
query molecule
   18    20     1     0     0
SMALL
NO_CHARGE

@<TRIPOS>ATOM
      1 C4         68.9825   48.8271    7.0171 C.ar      1 MOL     0.0725
      2 C5         69.2151   48.0027    8.1208 C.ar      1 MOL     0.0009
      3 C6         70.5063   47.8819    8.6353 C.ar      1 MOL     0.0187
      4 C7         72.8784   48.4641    8.5599 C.2       1 MOL    -0.0112
      5 C8         73.9384   48.1710    7.7536 C.2       1 MOL     0.0163
      6 C10        73.2267   48.6813    9.8413 C.2       1 MOL     0.0538
      7 N12        67.7440   48.9720    6.5189 N.ar      1 MOL    -0.2334
      8 C13        66.6881   48.3282    7.0604 C.ar      1 MOL     0.1153
      9 C15        68.1475   47.3181    8.7021 C.ar      1 MOL     0.0138
     10 C14        66.8655   47.4823    8.1631 C.ar      1 MOL     0.0445
     11 N16        65.4768   48.4843    6.5264 N.pl3     1 MOL    -0.3432
     12 C3         70.0433   49.5235    6.4395 C.ar      1 MOL     0.0295
     13 C2         71.3374   49.3971    6.9504 C.ar      1 MOL     0.0108
     14 C1         71.5821   48.5641    8.0432 C.ar      1 MOL    -0.0171
     15 C11        75.1614   48.1077    8.3031 C.2       1 MOL     0.0459
     16 S9         74.9181   48.4648    9.9198 S.3       1 MOL    -0.1054
     17 H161       65.2758   49.2952    5.9589 H         1 MOL     0.1442
     18 H162       64.7600   47.7917    6.6894 H         1 MOL     0.1442
@<TRIPOS>BOND
     1    2    1 ar
     2    1    7 ar
     3    1   12 ar
     4    3    2 ar
     5    2    9 ar
     6   14    3 ar
     7    4    5 1 
     8    4    6 2 
     9    4   14 1 
    10    5   15 2 
    11    6   16 1 
    12    7    8 ar
    13    8   10 ar
    14    8   11 1 
    15    9   10 ar
    16   12   13 ar
    17   13   14 ar
    18   15   16 1 
    19   17   11 1 
    20   18   11 1 
@<TRIPOS>SUBSTRUCTURE
1 MOL         1
@<TRIPOS>MOLECULE
query molecule
   18    20     1     0     0
SMALL
NO_CHARGE

@<TRIPOS>ATOM
      1 C4         78.6326   42.3919   14.4905 C.ar      1 MOL     0.0725
      2 C5         77.2793   42.6288   14.2363 C.ar      1 MOL     0.0009
      3 C6         76.9089   43.4779   13.1931 C.ar      1 MOL     0.0187
      4 C7         77.5231   44.9565   11.3471 C.2       1 MOL    -0.0112
      5 C8         76.9165   44.4634   10.2297 C.2       1 MOL     0.0163
      6 C10        77.6809   46.2926   11.3230 C.2       1 MOL     0.0538
      7 N12        79.0095   41.5629   15.4774 N.ar      1 MOL    -0.2334
      8 C13        78.1013   40.9365   16.2555 C.ar      1 MOL     0.1153
      9 C15        76.3139   42.0021   15.0246 C.ar      1 MOL     0.0138
     10 C14        76.7310   41.1445   16.0500 C.ar      1 MOL     0.0445
     11 N16        78.5154   40.1346   17.2363 N.pl3     1 MOL    -0.3432
     12 C3         79.6019   43.0055   13.6983 C.ar      1 MOL     0.0295
     13 C2         79.2310   43.8613   12.6582 C.ar      1 MOL     0.0108
     14 C1         77.8821   44.1160   12.4063 C.ar      1 MOL    -0.0171
     15 C11        76.5778   45.3213    9.2546 C.2       1 MOL     0.0459
     16 S9         77.0480   46.8214    9.8284 S.3       1 MOL    -0.1054
     17 H161       79.4933   40.1075   17.4876 H         1 MOL     0.1442
     18 H162       77.8514   39.5539   17.7281 H         1 MOL     0.1442
@<TRIPOS>BOND
     1    2    1 ar
     2    1    7 ar
     3    1   12 ar
     4    3    2 ar
     5    2    9 ar
     6   14    3 ar
     7    4    5 1 
     8    4    6 2 
     9    4   14 1 
    10    5   15 2 
    11    6   16 1 
    12    7    8 ar
    13    8   10 ar
    14    8   11 1 
    15    9   10 ar
    16   12   13 ar
    17   13   14 ar
    18   15   16 1 
    19   17   11 1 
    20   18   11 1 
@<TRIPOS>SUBSTRUCTURE
1 MOL         1
@<TRIPOS>MOLECULE
query molecule
   18    20     1     0     0
SMALL
NO_CHARGE

@<TRIPOS>ATOM
      1 C4         78.4534   42.5176   14.2457 C.ar      1 MOL     0.0725
      2 C5         77.1087   42.7777   13.9699 C.ar      1 MOL     0.0009
      3 C6         76.7698   43.6356   12.9232 C.ar      1 MOL     0.0187
      4 C7         77.4390   45.1083   11.0916 C.2       1 MOL    -0.0112
      5 C8         77.6142   46.4573   11.1869 C.2       1 MOL     0.0163
      6 C10        76.9800   44.7134    9.8899 C.2       1 MOL     0.0538
      7 N12        78.8002   41.6799   15.2363 N.ar      1 MOL    -0.2334
      8 C13        77.8689   41.0669   15.9977 C.ar      1 MOL     0.1153
      9 C15        76.1201   42.1654   14.7405 C.ar      1 MOL     0.0138
     10 C14        76.5058   41.2984   15.7702 C.ar      1 MOL     0.0445
     11 N16        78.2533   40.2557   16.9829 N.pl3     1 MOL    -0.3432
     12 C3         79.4458   43.1168   13.4713 C.ar      1 MOL     0.0295
     13 C2         79.1065   43.9813   12.4275 C.ar      1 MOL     0.0108
     14 C1         77.7663   44.2592   12.1543 C.ar      1 MOL    -0.0171
     15 C11        77.3006   47.2192   10.1273 C.2       1 MOL     0.0459
     16 S9         76.7818   46.1337    8.9641 S.3       1 MOL    -0.1054
     17 H161       78.9906   40.5394   17.6121 H         1 MOL     0.1442
     18 H162       77.8073   39.3572   17.1002 H         1 MOL     0.1442
@<TRIPOS>BOND
     1    2    1 ar
     2    1    7 ar
     3    1   12 ar
     4    3    2 ar
     5    2    9 ar
     6   14    3 ar
     7    4    5 1 
     8    4    6 2 
     9    4   14 1 
    10    5   15 2 
    11    6   16 1 
    12    7    8 ar
    13    8   10 ar
    14    8   11 1 
    15    9   10 ar
    16   12   13 ar
    17   13   14 ar
    18   15   16 1 
    19   17   11 1 
    20   18   11 1 
@<TRIPOS>SUBSTRUCTURE
1 MOL         1
@<TRIPOS>MOLECULE
query molecule
   18    20     1     0     0
SMALL
NO_CHARGE

@<TRIPOS>ATOM
      1 C4         67.7858   49.8539    9.4787 C.ar      1 MOL     0.0725
      2 C5         68.4099   50.3705   10.6170 C.ar      1 MOL     0.0009
      3 C6         69.7583   50.0995   10.8508 C.ar      1 MOL     0.0187
      4 C7         71.8500   49.0290   10.1797 C.2       1 MOL    -0.0112
      5 C8         72.2497   48.0564   11.0481 C.2       1 MOL     0.0163
      6 C10        72.8731   49.6371    9.5520 C.2       1 MOL     0.0538
      7 N12        66.4940   50.1192    9.2255 N.ar      1 MOL    -0.2334
      8 C13        65.7569   50.8855   10.0575 C.ar      1 MOL     0.1153
      9 C15        67.6764   51.1621   11.5012 C.ar      1 MOL     0.0138
     10 C14        66.3300   51.4222   11.2179 C.ar      1 MOL     0.0445
     11 N16        64.4729   51.1117    9.7805 N.pl3     1 MOL    -0.3432
     12 C3         68.5167   49.0725    8.5850 C.ar      1 MOL     0.0295
     13 C2         69.8652   48.7953    8.8228 C.ar      1 MOL     0.0108
     14 C1         70.4932   49.2943    9.9649 C.ar      1 MOL    -0.0171
     15 C11        73.5649   47.8343   11.1981 C.2       1 MOL     0.0459
     16 S9         74.2988   48.9166   10.1537 S.3       1 MOL    -0.1054
     17 H161       64.0768   50.7774    8.9137 H         1 MOL     0.1442
     18 H162       63.8961   51.6174   10.4374 H         1 MOL     0.1442
@<TRIPOS>BOND
     1    2    1 ar
     2    1    7 ar
     3    1   12 ar
     4    3    2 ar
     5    2    9 ar
     6   14    3 ar
     7    4    5 1 
     8    4    6 2 
     9    4   14 1 
    10    5   15 2 
    11    6   16 1 
    12    7    8 ar
    13    8   10 ar
    14    8   11 1 
    15    9   10 ar
    16   12   13 ar
    17   13   14 ar
    18   15   16 1 
    19   17   11 1 
    20   18   11 1 
@<TRIPOS>SUBSTRUCTURE
1 MOL         1
@<TRIPOS>MOLECULE
query molecule
   18    20     1     0     0
SMALL
NO_CHARGE

@<TRIPOS>ATOM
      1 C4         67.4513   49.9894    9.4922 C.ar      1 MOL     0.0725
      2 C5         68.0368   50.4285   10.6823 C.ar      1 MOL     0.0009
      3 C6         69.3775   50.1425   10.9412 C.ar      1 MOL     0.0187
      4 C7         71.4924   49.1198   10.2684 C.2       1 MOL    -0.0112
      5 C8         72.4721   49.6361    9.4727 C.2       1 MOL     0.0163
      6 C10        71.9673   48.3848   11.2906 C.2       1 MOL     0.0538
      7 N12        66.1678   50.2708    9.2153 N.ar      1 MOL    -0.2334
      8 C13        65.4022   50.9795   10.0723 C.ar      1 MOL     0.1153
      9 C15        67.2731   51.1588   11.5931 C.ar      1 MOL     0.0138
     10 C14        65.9360   51.4372   11.2842 C.ar      1 MOL     0.0445
     11 N16        64.1274   51.2236    9.7693 N.pl3     1 MOL    -0.3432
     12 C3         68.2127   49.2697    8.5723 C.ar      1 MOL     0.0295
     13 C2         69.5534   48.9774    8.8348 C.ar      1 MOL     0.0108
     14 C1         70.1427   49.3987   10.0278 C.ar      1 MOL    -0.0171
     15 C11        73.7505   49.3492    9.7647 C.2       1 MOL     0.0459
     16 S9         73.6672   48.3929   11.1354 S.3       1 MOL    -0.1054
     17 H161       63.8095   52.1749    9.6517 H         1 MOL     0.1442
     18 H162       63.4793   50.4571    9.6574 H         1 MOL     0.1442
@<TRIPOS>BOND
     1    2    1 ar
     2    1    7 ar
     3    1   12 ar
     4    3    2 ar
     5    2    9 ar
     6   14    3 ar
     7    4    5 1 
     8    4    6 2 
     9    4   14 1 
    10    5   15 2 
    11    6   16 1 
    12    7    8 ar
    13    8   10 ar
    14    8   11 1 
    15    9   10 ar
    16   12   13 ar
    17   13   14 ar
    18   15   16 1 
    19   17   11 1 
    20   18   11 1 
@<TRIPOS>SUBSTRUCTURE
1 MOL         1
@<TRIPOS>MOLECULE
query molecule
   18    20     1     0     0
SMALL
NO_CHARGE

@<TRIPOS>ATOM
      1 C4         67.9048   53.1381   11.8819 C.ar      1 MOL     0.0725
      2 C5         69.0491   53.3008   11.0970 C.ar      1 MOL     0.0009
      3 C6         70.1622   52.4892   11.3187 C.ar      1 MOL     0.0187
      4 C7         71.2582   50.6913   12.5587 C.2       1 MOL    -0.0112
      5 C8         71.7169   49.8538   11.5850 C.2       1 MOL     0.0163
      6 C10        71.9936   50.6537   13.6848 C.2       1 MOL     0.0538
      7 N12        66.8163   53.8958   11.6718 N.ar      1 MOL    -0.2334
      8 C13        66.7905   54.8373   10.7045 C.ar      1 MOL     0.1153
      9 C15        69.0590   54.2681   10.0918 C.ar      1 MOL     0.0138
     10 C14        67.9134   55.0486    9.8936 C.ar      1 MOL     0.0445
     11 N16        65.6971   55.5813   10.5384 N.pl3     1 MOL    -0.3432
     12 C3         67.8844   52.1646   12.8798 C.ar      1 MOL     0.0295
     13 C2         69.0015   51.3568   13.1063 C.ar      1 MOL     0.0108
     14 C1         70.1545   51.5222   12.3375 C.ar      1 MOL    -0.0171
     15 C11        72.7918   49.0946   11.8490 C.2       1 MOL     0.0459
     16 S9         73.2276   49.5065   13.4114 S.3       1 MOL    -0.1054
     17 H161       65.1510   55.4947    9.6932 H         1 MOL     0.1442
     18 H162       65.4148   56.2316   11.2577 H         1 MOL     0.1442
@<TRIPOS>BOND
     1    2    1 ar
     2    1    7 ar
     3    1   12 ar
     4    3    2 ar
     5    2    9 ar
     6   14    3 ar
     7    4    5 1 
     8    4    6 2 
     9    4   14 1 
    10    5   15 2 
    11    6   16 1 
    12    7    8 ar
    13    8   10 ar
    14    8   11 1 
    15    9   10 ar
    16   12   13 ar
    17   13   14 ar
    18   15   16 1 
    19   17   11 1 
    20   18   11 1 
@<TRIPOS>SUBSTRUCTURE
1 MOL         1
@<TRIPOS>MOLECULE
query molecule
   18    20     1     0     0
SMALL
NO_CHARGE

@<TRIPOS>ATOM
      1 C4         67.8995   53.2196   11.7499 C.ar      1 MOL     0.0725
      2 C5         69.0110   53.3830   10.9194 C.ar      1 MOL     0.0009
      3 C6         70.0763   52.4860   11.0036 C.ar      1 MOL     0.0187
      4 C7         71.1094   50.5145   12.0122 C.2       1 MOL    -0.0112
      5 C8         72.0359   50.5937   13.0097 C.2       1 MOL     0.0163
      6 C10        71.3012   49.4687   11.1876 C.2       1 MOL     0.0538
      7 N12        66.8556   54.0605   11.6710 N.ar      1 MOL    -0.2334
      8 C13        66.8447   55.0883   10.7956 C.ar      1 MOL     0.1153
      9 C15        69.0355   54.4378   10.0067 C.ar      1 MOL     0.0138
     10 C14        67.9369   55.3038    9.9449 C.ar      1 MOL     0.0445
     11 N16        65.7972   55.9117   10.7595 N.pl3     1 MOL    -0.3432
     12 C3         67.8637   52.1601   12.6554 C.ar      1 MOL     0.0295
     13 C2         68.9335   51.2660   12.7445 C.ar      1 MOL     0.0108
     14 C1         70.0548   51.4301   11.9298 C.ar      1 MOL    -0.0171
     15 C11        73.0139   49.6752   13.0483 C.2       1 MOL     0.0459
     16 S9         72.6973   48.6650   11.7523 S.3       1 MOL    -0.1054
     17 H161       65.0274   55.7780   11.3995 H         1 MOL     0.1442
     18 H162       65.7733   56.6694   10.0921 H         1 MOL     0.1442
@<TRIPOS>BOND
     1    2    1 ar
     2    1    7 ar
     3    1   12 ar
     4    3    2 ar
     5    2    9 ar
     6   14    3 ar
     7    4    5 1 
     8    4    6 2 
     9    4   14 1 
    10    5   15 2 
    11    6   16 1 
    12    7    8 ar
    13    8   10 ar
    14    8   11 1 
    15    9   10 ar
    16   12   13 ar
    17   13   14 ar
    18   15   16 1 
    19   17   11 1 
    20   18   11 1 
@<TRIPOS>SUBSTRUCTURE
1 MOL         1
@<TRIPOS>MOLECULE
query molecule
   18    20     1     0     0
SMALL
NO_CHARGE

@<TRIPOS>ATOM
      1 C4         69.3503   52.9061   11.7288 C.ar      1 MOL     0.0725
      2 C5         69.8561   52.0658   10.7338 C.ar      1 MOL     0.0009
      3 C6         70.7142   51.0215   11.0794 C.ar      1 MOL     0.0187
      4 C7         71.9403   49.7625   12.7774 C.2       1 MOL    -0.0112
      5 C8         72.6064   49.7691   13.9674 C.2       1 MOL     0.0163
      6 C10        72.1524   48.6485   12.0533 C.2       1 MOL     0.0538
      7 N12        68.5078   53.9048   11.4193 N.ar      1 MOL    -0.2334
      8 C13        68.1255   54.1333   10.1447 C.ar      1 MOL     0.1153
      9 C15        69.4861   52.2766    9.4052 C.ar      1 MOL     0.0138
     10 C14        68.6090   53.3265    9.1063 C.ar      1 MOL     0.0445
     11 N16        67.3012   55.1456    9.8756 N.pl3     1 MOL    -0.3432
     12 C3         69.7065   52.6929   13.0597 C.ar      1 MOL     0.0295
     13 C2         70.5713   51.6514   13.4049 C.ar      1 MOL     0.0108
     14 C1         71.0938   50.8163   12.4162 C.ar      1 MOL    -0.0171
     15 C11        73.3893   48.7210   14.2676 C.2       1 MOL     0.0459
     16 S9         73.2305   47.6862   12.9620 S.3       1 MOL    -0.1054
     17 H161       66.8102   55.6103   10.6260 H         1 MOL     0.1442
     18 H162       67.1676   55.4480    8.9213 H         1 MOL     0.1442
@<TRIPOS>BOND
     1    2    1 ar
     2    1    7 ar
     3    1   12 ar
     4    3    2 ar
     5    2    9 ar
     6   14    3 ar
     7    4    5 1 
     8    4    6 2 
     9    4   14 1 
    10    5   15 2 
    11    6   16 1 
    12    7    8 ar
    13    8   10 ar
    14    8   11 1 
    15    9   10 ar
    16   12   13 ar
    17   13   14 ar
    18   15   16 1 
    19   17   11 1 
    20   18   11 1 
@<TRIPOS>SUBSTRUCTURE
1 MOL         1
@<TRIPOS>MOLECULE
query molecule
   18    20     1     0     0
SMALL
NO_CHARGE

@<TRIPOS>ATOM
      1 C4         69.3503   52.9060   11.7288 C.ar      1 MOL     0.0725
      2 C5         69.8561   52.0658   10.7338 C.ar      1 MOL     0.0009
      3 C6         70.7142   51.0215   11.0794 C.ar      1 MOL     0.0187
      4 C7         71.9404   49.7625   12.7773 C.2       1 MOL    -0.0112
      5 C8         72.6065   49.7691   13.9673 C.2       1 MOL     0.0163
      6 C10        72.1524   48.6485   12.0532 C.2       1 MOL     0.0538
      7 N12        68.5078   53.9048   11.4193 N.ar      1 MOL    -0.2334
      8 C13        68.1254   54.1332   10.1448 C.ar      1 MOL     0.1153
      9 C15        69.4860   52.2766    9.4053 C.ar      1 MOL     0.0138
     10 C14        68.6089   53.3264    9.1064 C.ar      1 MOL     0.0445
     11 N16        67.3011   55.1455    9.8757 N.pl3     1 MOL    -0.3432
     12 C3         69.7066   52.6928   13.0597 C.ar      1 MOL     0.0295
     13 C2         70.5714   51.6513   13.4049 C.ar      1 MOL     0.0108
     14 C1         71.0938   50.8162   12.4161 C.ar      1 MOL    -0.0171
     15 C11        73.3895   48.7210   14.2675 C.2       1 MOL     0.0459
     16 S9         73.2306   47.6863   12.9618 S.3       1 MOL    -0.1054
     17 H161       67.6424   56.0957    9.9031 H         1 MOL     0.1442
     18 H162       66.3352   54.9624    9.6444 H         1 MOL     0.1442
@<TRIPOS>BOND
     1    2    1 ar
     2    1    7 ar
     3    1   12 ar
     4    3    2 ar
     5    2    9 ar
     6   14    3 ar
     7    4    5 1 
     8    4    6 2 
     9    4   14 1 
    10    5   15 2 
    11    6   16 1 
    12    7    8 ar
    13    8   10 ar
    14    8   11 1 
    15    9   10 ar
    16   12   13 ar
    17   13   14 ar
    18   15   16 1 
    19   17   11 1 
    20   18   11 1 
@<TRIPOS>SUBSTRUCTURE
1 MOL         1
@<TRIPOS>MOLECULE
query molecule
   18    20     1     0     0
SMALL
NO_CHARGE

@<TRIPOS>ATOM
      1 C4         71.8563   49.4995   11.9509 C.ar      1 MOL     0.0725
      2 C5         70.8389   50.4560   11.9963 C.ar      1 MOL     0.0009
      3 C6         69.7946   50.4007   11.0728 C.ar      1 MOL     0.0187
      4 C7         68.7136   49.3294    9.1609 C.2       1 MOL    -0.0112
      5 C8         68.9528   49.1294    7.8333 C.2       1 MOL     0.0163
      6 C10        67.4040   49.3931    9.4635 C.2       1 MOL     0.0538
      7 N12        72.8599   49.5238   12.8427 N.ar      1 MOL    -0.2334
      8 C13        72.9231   50.4684   13.8052 C.ar      1 MOL     0.1153
      9 C15        70.8756   51.4498   12.9746 C.ar      1 MOL     0.0138
     10 C14        71.9339   51.4569   13.8916 C.ar      1 MOL     0.0445
     11 N16        73.9448   50.4692   14.6613 N.pl3     1 MOL    -0.3432
     12 C3         71.8187   48.4965   10.9833 C.ar      1 MOL     0.0295
     13 C2         70.7766   48.4453   10.0542 C.ar      1 MOL     0.0108
     14 C1         69.7639   49.4053   10.0821 C.ar      1 MOL    -0.0171
     15 C11        67.9038   49.0458    7.0001 C.2       1 MOL     0.0459
     16 S9         66.5638   49.2119    7.9887 S.3       1 MOL    -0.1054
     17 H161       74.3999   51.3376   14.9037 H         1 MOL     0.1442
     18 H162       74.2637   49.6013   15.0677 H         1 MOL     0.1442
@<TRIPOS>BOND
     1    2    1 ar
     2    1    7 ar
     3    1   12 ar
     4    3    2 ar
     5    2    9 ar
     6   14    3 ar
     7    4    5 1 
     8    4    6 2 
     9    4   14 1 
    10    5   15 2 
    11    6   16 1 
    12    7    8 ar
    13    8   10 ar
    14    8   11 1 
    15    9   10 ar
    16   12   13 ar
    17   13   14 ar
    18   15   16 1 
    19   17   11 1 
    20   18   11 1 
@<TRIPOS>SUBSTRUCTURE
1 MOL         1
@<TRIPOS>MOLECULE
query molecule
   18    20     1     0     0
SMALL
NO_CHARGE

@<TRIPOS>ATOM
      1 C4         71.9626   49.5259   11.9326 C.ar      1 MOL     0.0725
      2 C5         70.8712   50.3979   11.9523 C.ar      1 MOL     0.0009
      3 C6         69.8484   50.2486   11.0153 C.ar      1 MOL     0.0187
      4 C7         68.8850   49.0729    9.1019 C.2       1 MOL    -0.0112
      5 C8         69.0436   49.4542    7.8022 C.2       1 MOL     0.0163
      6 C10        67.6937   48.4976    9.3477 C.2       1 MOL     0.0538
      7 N12        72.9478   49.6406   12.8378 N.ar      1 MOL    -0.2334
      8 C13        72.9209   50.5977   13.7895 C.ar      1 MOL     0.1153
      9 C15        70.8136   51.4021   12.9189 C.ar      1 MOL     0.0138
     10 C14        71.8544   51.5043   13.8502 C.ar      1 MOL     0.0445
     11 N16        73.9264   50.6901   14.6595 N.pl3     1 MOL    -0.3432
     12 C3         72.0198   48.5125   10.9768 C.ar      1 MOL     0.0295
     13 C2         70.9989   48.3674   10.0341 C.ar      1 MOL     0.0108
     14 C1         69.9122   49.2431   10.0364 C.ar      1 MOL    -0.0171
     15 C11        68.0297   49.2477    6.9471 C.2       1 MOL     0.0459
     16 S9         66.8421   48.5120    7.8684 S.3       1 MOL    -0.1054
     17 H161       74.0857   51.5542   15.1575 H         1 MOL     0.1442
     18 H162       74.5292   49.8959   14.8208 H         1 MOL     0.1442
@<TRIPOS>BOND
     1    2    1 ar
     2    1    7 ar
     3    1   12 ar
     4    3    2 ar
     5    2    9 ar
     6   14    3 ar
     7    4    5 1 
     8    4    6 2 
     9    4   14 1 
    10    5   15 2 
    11    6   16 1 
    12    7    8 ar
    13    8   10 ar
    14    8   11 1 
    15    9   10 ar
    16   12   13 ar
    17   13   14 ar
    18   15   16 1 
    19   17   11 1 
    20   18   11 1 
@<TRIPOS>SUBSTRUCTURE
1 MOL         1
@<TRIPOS>MOLECULE
query molecule
   18    20     1     0     0
SMALL
NO_CHARGE

@<TRIPOS>ATOM
      1 C4         71.3597   50.6971   11.7304 C.ar      1 MOL     0.0725
      2 C5         72.4937   49.9011   11.9099 C.ar      1 MOL     0.0009
      3 C6         73.0860   49.2810   10.8094 C.ar      1 MOL     0.0187
      4 C7         73.1372   48.8271    8.4088 C.2       1 MOL    -0.0112
      5 C8         74.3508   49.2422    7.9456 C.2       1 MOL     0.0163
      6 C10        72.6321   47.7854    7.7230 C.2       1 MOL     0.0538
      7 N12        70.7862   51.3181   12.7738 N.ar      1 MOL    -0.2334
      8 C13        71.2791   51.1932   14.0245 C.ar      1 MOL     0.1153
      9 C15        73.0265   49.7457   13.1899 C.ar      1 MOL     0.0138
     10 C14        72.4094   50.4003   14.2630 C.ar      1 MOL     0.0445
     11 N16        70.6713   51.8116   15.0368 N.pl3     1 MOL    -0.3432
     12 C3         70.8299   50.8662   10.4520 C.ar      1 MOL     0.0295
     13 C2         71.4189   50.2396    9.3509 C.ar      1 MOL     0.0108
     14 C1         72.5429   49.4302    9.5225 C.ar      1 MOL    -0.0171
     15 C11        74.8799   48.6123    6.8849 C.2       1 MOL     0.0459
     16 S9         73.7644   47.4266    6.4970 S.3       1 MOL    -0.1054
     17 H161       70.6566   51.3863   15.9528 H         1 MOL     0.1442
     18 H162       70.2253   52.7055   14.8879 H         1 MOL     0.1442
@<TRIPOS>BOND
     1    2    1 ar
     2    1    7 ar
     3    1   12 ar
     4    3    2 ar
     5    2    9 ar
     6   14    3 ar
     7    4    5 1 
     8    4    6 2 
     9    4   14 1 
    10    5   15 2 
    11    6   16 1 
    12    7    8 ar
    13    8   10 ar
    14    8   11 1 
    15    9   10 ar
    16   12   13 ar
    17   13   14 ar
    18   15   16 1 
    19   17   11 1 
    20   18   11 1 
@<TRIPOS>SUBSTRUCTURE
1 MOL         1
@<TRIPOS>MOLECULE
query molecule
   18    20     1     0     0
SMALL
NO_CHARGE

@<TRIPOS>ATOM
      1 C4         71.3412   50.5962   10.6895 C.ar      1 MOL     0.0725
      2 C5         72.4245   49.7245   10.8257 C.ar      1 MOL     0.0009
      3 C6         73.0077   49.1619    9.6900 C.ar      1 MOL     0.0187
      4 C7         73.0917   48.9001    7.2619 C.2       1 MOL    -0.0112
      5 C8         74.3456   49.2653    6.8695 C.2       1 MOL     0.0163
      6 C10        72.5377   47.9616    6.4727 C.2       1 MOL     0.0538
      7 N12        70.7781   51.1633   11.7686 N.ar      1 MOL    -0.2334
      8 C13        71.2328   50.9103   13.0144 C.ar      1 MOL     0.1153
      9 C15        72.9167   49.4365   12.0989 C.ar      1 MOL     0.0138
     10 C14        72.3111   50.0372   13.2095 C.ar      1 MOL     0.0445
     11 N16        70.6361   51.4792   14.0617 N.pl3     1 MOL    -0.3432
     12 C3         70.8527   50.8976    9.4190 C.ar      1 MOL     0.0295
     13 C2         71.4323   50.3287    8.2822 C.ar      1 MOL     0.0108
     14 C1         72.5051   49.4450    8.4092 C.ar      1 MOL    -0.0171
     15 C11        74.8635   48.6939    5.7708 C.2       1 MOL     0.0459
     16 S9         73.6813   47.6304    5.2494 S.3       1 MOL    -0.1054
     17 H161       70.5757   50.9832   14.9394 H         1 MOL     0.1442
     18 H162       70.2443   52.4063   13.9775 H         1 MOL     0.1442
@<TRIPOS>BOND
     1    2    1 ar
     2    1    7 ar
     3    1   12 ar
     4    3    2 ar
     5    2    9 ar
     6   14    3 ar
     7    4    5 1 
     8    4    6 2 
     9    4   14 1 
    10    5   15 2 
    11    6   16 1 
    12    7    8 ar
    13    8   10 ar
    14    8   11 1 
    15    9   10 ar
    16   12   13 ar
    17   13   14 ar
    18   15   16 1 
    19   17   11 1 
    20   18   11 1 
@<TRIPOS>SUBSTRUCTURE
1 MOL         1
@<TRIPOS>MOLECULE
query molecule
   18    20     1     0     0
SMALL
NO_CHARGE

@<TRIPOS>ATOM
      1 C4         73.6592   48.2217    5.5366 C.ar      1 MOL     0.0725
      2 C5         74.2542   46.9605    5.4507 C.ar      1 MOL     0.0009
      3 C6         74.1201   46.2096    4.2824 C.ar      1 MOL     0.0187
      4 C7         73.2472   45.9616    2.0135 C.2       1 MOL    -0.0112
      5 C8         72.1776   46.1367    1.1858 C.2       1 MOL     0.0163
      6 C10        74.1421   45.0711    1.5480 C.2       1 MOL     0.0538
      7 N12        73.7927   48.9683    6.6447 N.ar      1 MOL    -0.2334
      8 C13        74.4979   48.5284    7.7087 C.ar      1 MOL     0.1153
      9 C15        74.9858   46.4725    6.5337 C.ar      1 MOL     0.0138
     10 C14        75.1083   47.2676    7.6798 C.ar      1 MOL     0.0445
     11 N16        74.5928   49.2917    8.7972 N.pl3     1 MOL    -0.3432
     12 C3         72.9373   48.7200    4.4530 C.ar      1 MOL     0.0295
     13 C2         72.7972   47.9651    3.2858 C.ar      1 MOL     0.0108
     14 C1         73.3751   46.6979    3.1963 C.ar      1 MOL    -0.0171
     15 C11        72.1195   45.4157    0.0551 C.2       1 MOL     0.0459
     16 S9         73.5186   44.4976    0.0660 S.3       1 MOL    -0.1054
     17 H161       75.3314   49.9767    8.8709 H         1 MOL     0.1442
     18 H162       73.9262   49.1851    9.5484 H         1 MOL     0.1442
@<TRIPOS>BOND
     1    2    1 ar
     2    1    7 ar
     3    1   12 ar
     4    3    2 ar
     5    2    9 ar
     6   14    3 ar
     7    4    5 1 
     8    4    6 2 
     9    4   14 1 
    10    5   15 2 
    11    6   16 1 
    12    7    8 ar
    13    8   10 ar
    14    8   11 1 
    15    9   10 ar
    16   12   13 ar
    17   13   14 ar
    18   15   16 1 
    19   17   11 1 
    20   18   11 1 
@<TRIPOS>SUBSTRUCTURE
1 MOL         1
@<TRIPOS>MOLECULE
query molecule
   18    20     1     0     0
SMALL
NO_CHARGE

@<TRIPOS>ATOM
      1 C4         73.5996   48.3098    5.4532 C.ar      1 MOL     0.0725
      2 C5         74.2265   47.0753    5.2664 C.ar      1 MOL     0.0009
      3 C6         74.0574   46.3876    4.0643 C.ar      1 MOL     0.0187
      4 C7         73.0819   46.2399    1.8287 C.2       1 MOL    -0.0112
      5 C8         72.2745   46.7397    0.8499 C.2       1 MOL     0.0163
      6 C10        73.7062   45.1014    1.4759 C.2       1 MOL     0.0538
      7 N12        73.7653   48.9966    6.5952 N.ar      1 MOL    -0.2334
      8 C13        74.5345   48.5204    7.5973 C.ar      1 MOL     0.1153
      9 C15        75.0244   46.5508    6.2835 C.ar      1 MOL     0.0138
     10 C14        75.1796   47.2835    7.4667 C.ar      1 MOL     0.0445
     11 N16        74.6603   49.2238    8.7225 N.pl3     1 MOL    -0.3432
     12 C3         72.8110   48.8450    4.4357 C.ar      1 MOL     0.0295
     13 C2         72.6361   48.1530    3.2347 C.ar      1 MOL     0.0108
     14 C1         73.2459   46.9121    3.0448 C.ar      1 MOL    -0.0171
     15 C11        72.1719   46.0603   -0.3032 C.2       1 MOL     0.0459
     16 S9         73.1805   44.7393   -0.1073 S.3       1 MOL    -0.1054
     17 H161       75.4289   49.8699    8.8309 H         1 MOL     0.1442
     18 H162       73.9869   49.1106    9.4667 H         1 MOL     0.1442
@<TRIPOS>BOND
     1    2    1 ar
     2    1    7 ar
     3    1   12 ar
     4    3    2 ar
     5    2    9 ar
     6   14    3 ar
     7    4    5 1 
     8    4    6 2 
     9    4   14 1 
    10    5   15 2 
    11    6   16 1 
    12    7    8 ar
    13    8   10 ar
    14    8   11 1 
    15    9   10 ar
    16   12   13 ar
    17   13   14 ar
    18   15   16 1 
    19   17   11 1 
    20   18   11 1 
@<TRIPOS>SUBSTRUCTURE
1 MOL         1
@<TRIPOS>MOLECULE
query molecule
   18    20     1     0     0
SMALL
NO_CHARGE

@<TRIPOS>ATOM
      1 C4         74.9474   46.7488    7.1633 C.ar      1 MOL     0.0725
      2 C5         75.1726   47.7739    8.0855 C.ar      1 MOL     0.0009
      3 C6         76.0323   47.5595    9.1632 C.ar      1 MOL     0.0187
      4 C7         77.5366   46.0940   10.4125 C.2       1 MOL    -0.0112
      5 C8         78.7916   46.6273   10.4168 C.2       1 MOL     0.0163
      6 C10        77.2468   45.4025   11.5298 C.2       1 MOL     0.0538
      7 N12        74.1389   46.9413    6.1086 N.ar      1 MOL    -0.2334
      8 C13        73.5165   48.1220    5.9054 C.ar      1 MOL     0.1153
      9 C15        74.5414   49.0055    7.9090 C.ar      1 MOL     0.0138
     10 C14        73.7001   49.1816    6.8036 C.ar      1 MOL     0.0445
     11 N16        72.7079   48.2684    4.8560 N.pl3     1 MOL    -0.3432
     12 C3         75.5850   45.5199    7.3274 C.ar      1 MOL     0.0295
     13 C2         76.4404   45.3030    8.4105 C.ar      1 MOL     0.0108
     14 C1         76.6596   46.3159    9.3452 C.ar      1 MOL    -0.0171
     15 C11        79.5810   46.3959   11.4774 C.2       1 MOL     0.0459
     16 S9         78.6431   45.4708   12.5094 S.3       1 MOL    -0.1054
     17 H161       72.7506   49.1099    4.2990 H         1 MOL     0.1442
     18 H162       72.0525   47.5379    4.6178 H         1 MOL     0.1442
@<TRIPOS>BOND
     1    2    1 ar
     2    1    7 ar
     3    1   12 ar
     4    3    2 ar
     5    2    9 ar
     6   14    3 ar
     7    4    5 1 
     8    4    6 2 
     9    4   14 1 
    10    5   15 2 
    11    6   16 1 
    12    7    8 ar
    13    8   10 ar
    14    8   11 1 
    15    9   10 ar
    16   12   13 ar
    17   13   14 ar
    18   15   16 1 
    19   17   11 1 
    20   18   11 1 
@<TRIPOS>SUBSTRUCTURE
1 MOL         1
@<TRIPOS>MOLECULE
query molecule
   18    20     1     0     0
SMALL
NO_CHARGE

@<TRIPOS>ATOM
      1 C4         74.6999   46.9358    7.3517 C.ar      1 MOL     0.0725
      2 C5         75.1482   47.9232    8.2326 C.ar      1 MOL     0.0009
      3 C6         76.1976   47.6450    9.1089 C.ar      1 MOL     0.0187
      4 C7         77.8608   46.0888    9.9939 C.2       1 MOL    -0.0112
      5 C8         79.0494   45.6207    9.5166 C.2       1 MOL     0.0163
      6 C10        77.8575   46.2766   11.3262 C.2       1 MOL     0.0538
      7 N12        73.7043   47.1895    6.4871 N.ar      1 MOL    -0.2334
      8 C13        73.1030   48.3974    6.4413 C.ar      1 MOL     0.1153
      9 C15        74.5456   49.1814    8.2160 C.ar      1 MOL     0.0138
     10 C14        73.5070   49.4215    7.3080 C.ar      1 MOL     0.0445
     11 N16        72.1065   48.6050    5.5808 N.pl3     1 MOL    -0.3432
     12 C3         75.3063   45.6804    7.3549 C.ar      1 MOL     0.0295
     13 C2         76.3525   45.3997    8.2373 C.ar      1 MOL     0.0108
     14 C1         76.7969   46.3749    9.1314 C.ar      1 MOL    -0.0171
     15 C11        80.0401   45.3828   10.3904 C.2       1 MOL     0.0459
     16 S9         79.4026   45.8061   11.8787 S.3       1 MOL    -0.1054
     17 H161       71.4643   49.3707    5.7269 H         1 MOL     0.1442
     18 H162       71.9935   47.9965    4.7826 H         1 MOL     0.1442
@<TRIPOS>BOND
     1    2    1 ar
     2    1    7 ar
     3    1   12 ar
     4    3    2 ar
     5    2    9 ar
     6   14    3 ar
     7    4    5 1 
     8    4    6 2 
     9    4   14 1 
    10    5   15 2 
    11    6   16 1 
    12    7    8 ar
    13    8   10 ar
    14    8   11 1 
    15    9   10 ar
    16   12   13 ar
    17   13   14 ar
    18   15   16 1 
    19   17   11 1 
    20   18   11 1 
@<TRIPOS>SUBSTRUCTURE
1 MOL         1
@<TRIPOS>MOLECULE
query molecule
   18    20     1     0     0
SMALL
NO_CHARGE

@<TRIPOS>ATOM
      1 C4         72.4611   49.8341    9.5132 C.ar      1 MOL     0.0725
      2 C5         72.6852   49.2092   10.7425 C.ar      1 MOL     0.0009
      3 C6         73.7445   48.3118   10.8804 C.ar      1 MOL     0.0187
      4 C7         75.6537   47.1264    9.9205 C.2       1 MOL    -0.0112
      5 C8         76.2959   46.6310    8.8243 C.2       1 MOL     0.0163
      6 C10        76.1889   46.7144   11.0842 C.2       1 MOL     0.0538
      7 N12        71.4589   50.7155    9.3651 N.ar      1 MOL    -0.2334
      8 C13        70.6361   51.0240   10.3900 C.ar      1 MOL     0.1153
      9 C15        71.8506   49.5007   11.8218 C.ar      1 MOL     0.0138
     10 C14        70.8101   50.4205   11.6425 C.ar      1 MOL     0.0445
     11 N16        69.6418   51.8908   10.1986 N.pl3     1 MOL    -0.3432
     12 C3         73.2993   49.5564    8.4343 C.ar      1 MOL     0.0295
     13 C2         74.3558   48.6525    8.5706 C.ar      1 MOL     0.0108
     14 C1         74.5782   48.0118    9.7904 C.ar      1 MOL    -0.0171
     15 C11        77.3336   45.8006    9.0122 C.2       1 MOL     0.0459
     16 S9         77.4862   45.6832   10.6746 S.3       1 MOL    -0.1054
     17 H161       69.6607   52.5135    9.4036 H         1 MOL     0.1442
     18 H162       68.8696   51.9250   10.8486 H         1 MOL     0.1442
@<TRIPOS>BOND
     1    2    1 ar
     2    1    7 ar
     3    1   12 ar
     4    3    2 ar
     5    2    9 ar
     6   14    3 ar
     7    4    5 1 
     8    4    6 2 
     9    4   14 1 
    10    5   15 2 
    11    6   16 1 
    12    7    8 ar
    13    8   10 ar
    14    8   11 1 
    15    9   10 ar
    16   12   13 ar
    17   13   14 ar
    18   15   16 1 
    19   17   11 1 
    20   18   11 1 
@<TRIPOS>SUBSTRUCTURE
1 MOL         1
@<TRIPOS>MOLECULE
query molecule
   18    20     1     0     0
SMALL
NO_CHARGE

@<TRIPOS>ATOM
      1 C4         72.7349   49.7536    9.5157 C.ar      1 MOL     0.0725
      2 C5         72.9142   49.0777   10.7253 C.ar      1 MOL     0.0009
      3 C6         73.9993   48.2150   10.8824 C.ar      1 MOL     0.0187
      4 C7         76.0059   47.1508    9.9808 C.2       1 MOL    -0.0112
      5 C8         77.2751   47.6456   10.0439 C.2       1 MOL     0.0163
      6 C10        75.9465   45.8141   10.1230 C.2       1 MOL     0.0538
      7 N12        71.7080   50.6030    9.3510 N.ar      1 MOL    -0.2334
      8 C13        70.8168   50.8295   10.3396 C.ar      1 MOL     0.1153
      9 C15        72.0089   49.2841   11.7665 C.ar      1 MOL     0.0138
     10 C14        70.9440   50.1719   11.5703 C.ar      1 MOL     0.0445
     11 N16        69.8008   51.6668   10.1315 N.pl3     1 MOL    -0.3432
     12 C3         73.6432   49.5610    8.4757 C.ar      1 MOL     0.0295
     13 C2         74.7259   48.6917    8.6307 C.ar      1 MOL     0.0108
     14 C1         74.9047   48.0006    9.8300 C.ar      1 MOL    -0.0171
     15 C11        78.2901   46.7829   10.2089 C.2       1 MOL     0.0459
     16 S9         77.5578   45.2813   10.3065 S.3       1 MOL    -0.1054
     17 H161       69.7456   52.5323   10.6490 H         1 MOL     0.1442
     18 H162       69.0862   51.4357    9.4562 H         1 MOL     0.1442
@<TRIPOS>BOND
     1    2    1 ar
     2    1    7 ar
     3    1   12 ar
     4    3    2 ar
     5    2    9 ar
     6   14    3 ar
     7    4    5 1 
     8    4    6 2 
     9    4   14 1 
    10    5   15 2 
    11    6   16 1 
    12    7    8 ar
    13    8   10 ar
    14    8   11 1 
    15    9   10 ar
    16   12   13 ar
    17   13   14 ar
    18   15   16 1 
    19   17   11 1 
    20   18   11 1 
@<TRIPOS>SUBSTRUCTURE
1 MOL         1
@<TRIPOS>MOLECULE
query molecule
   18    20     1     0     0
SMALL
NO_CHARGE

@<TRIPOS>ATOM
      1 C4         73.0797   47.2992    3.1676 C.ar      1 MOL     0.0725
      2 C5         73.8989   46.2225    3.5161 C.ar      1 MOL     0.0009
      3 C6         74.5226   46.2022    4.7639 C.ar      1 MOL     0.0187
      4 C7         74.9606   47.2469    6.9292 C.2       1 MOL    -0.0112
      5 C8         75.4234   46.0856    7.4740 C.2       1 MOL     0.0163
      6 C10        75.1930   48.3267    7.6977 C.2       1 MOL     0.0538
      7 N12        72.4549   47.3285    1.9793 N.ar      1 MOL    -0.2334
      8 C13        72.5982   46.3279    1.0844 C.ar      1 MOL     0.1153
      9 C15        74.0735   45.1736    2.6129 C.ar      1 MOL     0.0138
     10 C14        73.4146   45.2278    1.3786 C.ar      1 MOL     0.0445
     11 N16        71.9752   46.4018   -0.0917 N.pl3     1 MOL    -0.3432
     12 C3         72.8914   48.3444    4.0709 C.ar      1 MOL     0.0295
     13 C2         73.5216   48.3274    5.3176 C.ar      1 MOL     0.0108
     14 C1         74.3539   47.2635    5.6686 C.ar      1 MOL    -0.0171
     15 C11        76.0141   46.1352    8.6783 C.2       1 MOL     0.0459
     16 S9         75.9818   47.7546    9.0992 S.3       1 MOL    -0.1054
     17 H161       71.5640   45.5738   -0.4983 H         1 MOL     0.1442
     18 H162       71.9144   47.2859   -0.5762 H         1 MOL     0.1442
@<TRIPOS>BOND
     1    2    1 ar
     2    1    7 ar
     3    1   12 ar
     4    3    2 ar
     5    2    9 ar
     6   14    3 ar
     7    4    5 1 
     8    4    6 2 
     9    4   14 1 
    10    5   15 2 
    11    6   16 1 
    12    7    8 ar
    13    8   10 ar
    14    8   11 1 
    15    9   10 ar
    16   12   13 ar
    17   13   14 ar
    18   15   16 1 
    19   17   11 1 
    20   18   11 1 
@<TRIPOS>SUBSTRUCTURE
1 MOL         1
@<TRIPOS>MOLECULE
query molecule
   18    20     1     0     0
SMALL
NO_CHARGE

@<TRIPOS>ATOM
      1 C4         72.9761   47.5564    3.1716 C.ar      1 MOL     0.0725
      2 C5         73.6620   46.3838    3.4977 C.ar      1 MOL     0.0009
      3 C6         74.3136   46.2818    4.7272 C.ar      1 MOL     0.0187
      4 C7         74.9418   47.2574    6.8778 C.2       1 MOL    -0.0112
      5 C8         75.0045   46.0713    7.5479 C.2       1 MOL     0.0163
      6 C10        75.5780   48.2611    7.5088 C.2       1 MOL     0.0538
      7 N12        72.3264   47.6674    2.0016 N.ar      1 MOL    -0.2334
      8 C13        72.3162   46.6589    1.1041 C.ar      1 MOL     0.1153
      9 C15        73.6767   45.3236    2.5911 C.ar      1 MOL     0.0138
     10 C14        72.9950   45.4637    1.3761 C.ar      1 MOL     0.0445
     11 N16        71.6743   46.8140   -0.0538 N.pl3     1 MOL    -0.3432
     12 C3         72.9473   48.6148    4.0786 C.ar      1 MOL     0.0295
     13 C2         73.6056   48.5152    5.3068 C.ar      1 MOL     0.0108
     14 C1         74.3063   47.3536    5.6351 C.ar      1 MOL    -0.0171
     15 C11        75.6445   46.0364    8.7273 C.2       1 MOL     0.0459
     16 S9         76.1997   47.5987    8.9540 S.3       1 MOL    -0.1054
     17 H161       71.1502   46.0456   -0.4475 H         1 MOL     0.1442
     18 H162       71.7121   47.6998   -0.5374 H         1 MOL     0.1442
@<TRIPOS>BOND
     1    2    1 ar
     2    1    7 ar
     3    1   12 ar
     4    3    2 ar
     5    2    9 ar
     6   14    3 ar
     7    4    5 1 
     8    4    6 2 
     9    4   14 1 
    10    5   15 2 
    11    6   16 1 
    12    7    8 ar
    13    8   10 ar
    14    8   11 1 
    15    9   10 ar
    16   12   13 ar
    17   13   14 ar
    18   15   16 1 
    19   17   11 1 
    20   18   11 1 
@<TRIPOS>SUBSTRUCTURE
1 MOL         1
@<TRIPOS>MOLECULE
query molecule
   18    20     1     0     0
SMALL
NO_CHARGE

@<TRIPOS>ATOM
      1 C4         76.3462   46.2589    8.6701 C.ar      1 MOL     0.0725
      2 C5         76.3646   47.1057    9.7812 C.ar      1 MOL     0.0009
      3 C6         75.2843   47.9548   10.0229 C.ar      1 MOL     0.0187
      4 C7         73.0880   48.8193    9.3899 C.2       1 MOL    -0.0112
      5 C8         72.0363   48.4008   10.1504 C.2       1 MOL     0.0163
      6 C10        72.9653   50.0891    8.9621 C.2       1 MOL     0.0538
      7 N12        77.3673   45.4203    8.4307 N.ar      1 MOL    -0.2334
      8 C13        78.4416   45.3688    9.2467 C.ar      1 MOL     0.1153
      9 C15        77.4617   47.0823   10.6428 C.ar      1 MOL     0.0138
     10 C14        78.5161   46.2020   10.3707 C.ar      1 MOL     0.0445
     11 N16        79.4431   44.5353    8.9656 N.pl3     1 MOL    -0.3432
     12 C3         75.2472   46.2687    7.8124 C.ar      1 MOL     0.0295
     13 C2         74.1685   47.1240    8.0505 C.ar      1 MOL     0.0108
     14 C1         74.1846   47.9844    9.1493 C.ar      1 MOL    -0.0171
     15 C11        71.0215   49.2533   10.3626 C.2       1 MOL     0.0459
     16 S9         71.4690   50.6521    9.5604 S.3       1 MOL    -0.1054
     17 H161       79.5725   44.2017    8.0211 H         1 MOL     0.1442
     18 H162       80.0725   44.2373    9.6971 H         1 MOL     0.1442
@<TRIPOS>BOND
     1    2    1 ar
     2    1    7 ar
     3    1   12 ar
     4    3    2 ar
     5    2    9 ar
     6   14    3 ar
     7    4    5 1 
     8    4    6 2 
     9    4   14 1 
    10    5   15 2 
    11    6   16 1 
    12    7    8 ar
    13    8   10 ar
    14    8   11 1 
    15    9   10 ar
    16   12   13 ar
    17   13   14 ar
    18   15   16 1 
    19   17   11 1 
    20   18   11 1 
@<TRIPOS>SUBSTRUCTURE
1 MOL         1
@<TRIPOS>MOLECULE
query molecule
   18    20     1     0     0
SMALL
NO_CHARGE

@<TRIPOS>ATOM
      1 C4         76.3452   46.2589    8.6691 C.ar      1 MOL     0.0725
      2 C5         76.3621   47.1063    9.7798 C.ar      1 MOL     0.0009
      3 C6         75.2809   47.9547   10.0202 C.ar      1 MOL     0.0187
      4 C7         73.0845   48.8173    9.3852 C.2       1 MOL    -0.0112
      5 C8         71.8865   48.3077    9.7911 C.2       1 MOL     0.0163
      6 C10        73.0905   50.1598    9.2952 C.2       1 MOL     0.0538
      7 N12        77.3671   45.4210    8.4308 N.ar      1 MOL    -0.2334
      8 C13        78.4408   45.3707    9.2477 C.ar      1 MOL     0.1153
      9 C15        77.4585   47.0842   10.6421 C.ar      1 MOL     0.0138
     10 C14        78.5138   46.2045   10.3713 C.ar      1 MOL     0.0445
     11 N16        79.4431   44.5378    8.9677 N.pl3     1 MOL    -0.3432
     12 C3         75.2467   46.2675    7.8105 C.ar      1 MOL     0.0295
     13 C2         74.1672   47.1221    8.0475 C.ar      1 MOL     0.0108
     14 C1         74.1819   47.9831    9.1459 C.ar      1 MOL    -0.0171
     15 C11        70.8754   49.1594   10.0240 C.2       1 MOL     0.0459
     16 S9         71.5202   50.6742    9.7237 S.3       1 MOL    -0.1054
     17 H161       79.4617   44.0492    8.0840 H         1 MOL     0.1442
     18 H162       80.1839   44.3954    9.6392 H         1 MOL     0.1442
@<TRIPOS>BOND
     1    2    1 ar
     2    1    7 ar
     3    1   12 ar
     4    3    2 ar
     5    2    9 ar
     6   14    3 ar
     7    4    5 1 
     8    4    6 2 
     9    4   14 1 
    10    5   15 2 
    11    6   16 1 
    12    7    8 ar
    13    8   10 ar
    14    8   11 1 
    15    9   10 ar
    16   12   13 ar
    17   13   14 ar
    18   15   16 1 
    19   17   11 1 
    20   18   11 1 
@<TRIPOS>SUBSTRUCTURE
1 MOL         1
@<TRIPOS>MOLECULE
query molecule
   18    20     1     0     0
SMALL
NO_CHARGE

@<TRIPOS>ATOM
      1 C4         64.0226   48.1736   13.9552 C.ar      1 MOL     0.0725
      2 C5         64.1058   46.7790   13.9592 C.ar      1 MOL     0.0009
      3 C6         63.7708   46.0619   12.8103 C.ar      1 MOL     0.0187
      4 C7         63.0069   46.0179   10.4895 C.2       1 MOL    -0.0112
      5 C8         63.9723   45.4082    9.7439 C.2       1 MOL     0.0163
      6 C10        61.7631   45.8229   10.0147 C.2       1 MOL     0.0538
      7 N12        64.3590   48.8833   15.0444 N.ar      1 MOL    -0.2334
      8 C13        64.7827   48.2788   16.1748 C.ar      1 MOL     0.1153
      9 C15        64.5347   46.1212   15.1123 C.ar      1 MOL     0.0138
     10 C14        64.8768   46.8822   16.2369 C.ar      1 MOL     0.0445
     11 N16        65.0909   49.0171   17.2409 N.pl3     1 MOL    -0.3432
     12 C3         63.6066   48.8374   12.8019 C.ar      1 MOL     0.0295
     13 C2         63.2645   48.1188   11.6537 C.ar      1 MOL     0.0108
     14 C1         63.3298   46.7247   11.6530 C.ar      1 MOL    -0.0171
     15 C11        63.5997   44.7281    8.6483 C.2       1 MOL     0.0459
     16 S9         61.9330   44.8732    8.6064 S.3       1 MOL    -0.1054
     17 H161       65.2172   48.5766   18.1409 H         1 MOL     0.1442
     18 H162       65.1982   50.0171   17.1486 H         1 MOL     0.1442
@<TRIPOS>BOND
     1    2    1 ar
     2    1    7 ar
     3    1   12 ar
     4    3    2 ar
     5    2    9 ar
     6   14    3 ar
     7    4    5 1 
     8    4    6 2 
     9    4   14 1 
    10    5   15 2 
    11    6   16 1 
    12    7    8 ar
    13    8   10 ar
    14    8   11 1 
    15    9   10 ar
    16   12   13 ar
    17   13   14 ar
    18   15   16 1 
    19   17   11 1 
    20   18   11 1 
@<TRIPOS>SUBSTRUCTURE
1 MOL         1
@<TRIPOS>MOLECULE
query molecule
   18    20     1     0     0
SMALL
NO_CHARGE

@<TRIPOS>ATOM
      1 C4         64.0226   48.1737   13.9552 C.ar      1 MOL     0.0725
      2 C5         64.1059   46.7790   13.9593 C.ar      1 MOL     0.0009
      3 C6         63.7709   46.0618   12.8104 C.ar      1 MOL     0.0187
      4 C7         63.0071   46.0176   10.4896 C.2       1 MOL    -0.0112
      5 C8         63.9725   45.4079    9.7440 C.2       1 MOL     0.0163
      6 C10        61.7633   45.8225   10.0148 C.2       1 MOL     0.0538
      7 N12        64.3590   48.8834   15.0443 N.ar      1 MOL    -0.2334
      8 C13        64.7827   48.2790   16.1748 C.ar      1 MOL     0.1153
      9 C15        64.5348   46.1214   15.1125 C.ar      1 MOL     0.0138
     10 C14        64.8769   46.8825   16.2370 C.ar      1 MOL     0.0445
     11 N16        65.0908   49.0174   17.2408 N.pl3     1 MOL    -0.3432
     12 C3         63.6065   48.8373   12.8019 C.ar      1 MOL     0.0295
     13 C2         63.2645   48.1186   11.6537 C.ar      1 MOL     0.0108
     14 C1         63.3299   46.7245   11.6531 C.ar      1 MOL    -0.0171
     15 C11        63.5999   44.7277    8.6485 C.2       1 MOL     0.0459
     16 S9         61.9333   44.8727    8.6066 S.3       1 MOL    -0.1054
     17 H161       64.3617   49.4901   17.7556 H         1 MOL     0.1442
     18 H162       66.0535   49.1043   17.5337 H         1 MOL     0.1442
@<TRIPOS>BOND
     1    2    1 ar
     2    1    7 ar
     3    1   12 ar
     4    3    2 ar
     5    2    9 ar
     6   14    3 ar
     7    4    5 1 
     8    4    6 2 
     9    4   14 1 
    10    5   15 2 
    11    6   16 1 
    12    7    8 ar
    13    8   10 ar
    14    8   11 1 
    15    9   10 ar
    16   12   13 ar
    17   13   14 ar
    18   15   16 1 
    19   17   11 1 
    20   18   11 1 
@<TRIPOS>SUBSTRUCTURE
1 MOL         1
@<TRIPOS>MOLECULE
query molecule
   18    20     1     0     0
SMALL
NO_CHARGE

@<TRIPOS>ATOM
      1 C4         69.7427   51.6857   11.9348 C.ar      1 MOL     0.0725
      2 C5         68.7923   51.5650   12.9517 C.ar      1 MOL     0.0009
      3 C6         67.4361   51.5099   12.6292 C.ar      1 MOL     0.0187
      4 C7         65.6556   51.5249   10.9556 C.2       1 MOL    -0.0112
      5 C8         64.9136   50.4178   11.2446 C.2       1 MOL     0.0163
      6 C10        64.9428   52.5090   10.3776 C.2       1 MOL     0.0538
      7 N12        71.0538   51.7209   12.2228 N.ar      1 MOL    -0.2334
      8 C13        71.4967   51.6453   13.4960 C.ar      1 MOL     0.1153
      9 C15        69.2147   51.4897   14.2792 C.ar      1 MOL     0.0138
     10 C14        70.5868   51.5318   14.5554 C.ar      1 MOL     0.0445
     11 N16        72.8054   51.7011   13.7425 N.pl3     1 MOL    -0.3432
     12 C3         69.3275   51.7489   10.6054 C.ar      1 MOL     0.0295
     13 C2         67.9690   51.7008   10.2830 C.ar      1 MOL     0.0108
     14 C1         67.0115   51.5956   11.2929 C.ar      1 MOL    -0.0171
     15 C11        63.6127   50.4158   10.9141 C.2       1 MOL     0.0459
     16 S9         63.3489   51.9176   10.2244 S.3       1 MOL    -0.1054
     17 H161       73.4158   52.2088   13.1183 H         1 MOL     0.1442
     18 H162       73.1867   51.2356   14.5537 H         1 MOL     0.1442
@<TRIPOS>BOND
     1    2    1 ar
     2    1    7 ar
     3    1   12 ar
     4    3    2 ar
     5    2    9 ar
     6   14    3 ar
     7    4    5 1 
     8    4    6 2 
     9    4   14 1 
    10    5   15 2 
    11    6   16 1 
    12    7    8 ar
    13    8   10 ar
    14    8   11 1 
    15    9   10 ar
    16   12   13 ar
    17   13   14 ar
    18   15   16 1 
    19   17   11 1 
    20   18   11 1 
@<TRIPOS>SUBSTRUCTURE
1 MOL         1
@<TRIPOS>MOLECULE
query molecule
   18    20     1     0     0
SMALL
NO_CHARGE

@<TRIPOS>ATOM
      1 C4         69.7428   51.6857   11.9347 C.ar      1 MOL     0.0725
      2 C5         68.7926   51.5650   12.9518 C.ar      1 MOL     0.0009
      3 C6         67.4363   51.5100   12.6296 C.ar      1 MOL     0.0187
      4 C7         65.6554   51.5251   10.9563 C.2       1 MOL    -0.0112
      5 C8         64.9135   50.4180   11.2455 C.2       1 MOL     0.0163
      6 C10        64.9425   52.5091   10.3785 C.2       1 MOL     0.0538
      7 N12        71.0539   51.7209   12.2225 N.ar      1 MOL    -0.2334
      8 C13        71.4971   51.6452   13.4955 C.ar      1 MOL     0.1153
      9 C15        69.2152   51.4897   14.2792 C.ar      1 MOL     0.0138
     10 C14        70.5874   51.5318   14.5551 C.ar      1 MOL     0.0445
     11 N16        72.8058   51.7010   13.7419 N.pl3     1 MOL    -0.3432
     12 C3         69.3273   51.7490   10.6054 C.ar      1 MOL     0.0295
     13 C2         67.9687   51.7009   10.2833 C.ar      1 MOL     0.0108
     14 C1         67.0114   51.5957   11.2934 C.ar      1 MOL    -0.0171
     15 C11        63.6125   50.4160   10.9153 C.2       1 MOL     0.0459
     16 S9         63.3486   51.9178   10.2256 S.3       1 MOL    -0.1054
     17 H161       73.3442   50.8490   13.8072 H         1 MOL     0.1442
     18 H162       73.2592   52.5953   13.8631 H         1 MOL     0.1442
@<TRIPOS>BOND
     1    2    1 ar
     2    1    7 ar
     3    1   12 ar
     4    3    2 ar
     5    2    9 ar
     6   14    3 ar
     7    4    5 1 
     8    4    6 2 
     9    4   14 1 
    10    5   15 2 
    11    6   16 1 
    12    7    8 ar
    13    8   10 ar
    14    8   11 1 
    15    9   10 ar
    16   12   13 ar
    17   13   14 ar
    18   15   16 1 
    19   17   11 1 
    20   18   11 1 
@<TRIPOS>SUBSTRUCTURE
1 MOL         1
@<TRIPOS>MOLECULE
query molecule
   18    20     1     0     0
SMALL
NO_CHARGE

@<TRIPOS>ATOM
      1 C4         64.8047   47.2435    8.3971 C.ar      1 MOL     0.0725
      2 C5         64.7382   48.2169    9.3971 C.ar      1 MOL     0.0009
      3 C6         63.9644   47.9887   10.5354 C.ar      1 MOL     0.0187
      4 C7         62.4664   46.5509   11.8239 C.2       1 MOL    -0.0112
      5 C8         63.0356   46.5297   13.0630 C.2       1 MOL     0.0163
      6 C10        61.1345   46.3610   11.8451 C.2       1 MOL     0.0538
      7 N12        65.5590   47.4355    7.3029 N.ar      1 MOL    -0.2334
      8 C13        66.2716   48.5691    7.1297 C.ar      1 MOL     0.1153
      9 C15        65.4577   49.4028    9.2482 C.ar      1 MOL     0.0138
     10 C14        66.2346   49.5820    8.0971 C.ar      1 MOL     0.0445
     11 N16        66.9947   48.7298    6.0216 N.pl3     1 MOL    -0.3432
     12 C3         64.0978   46.0511    8.5459 C.ar      1 MOL     0.0295
     13 C2         63.3175   45.8256    9.6826 C.ar      1 MOL     0.0108
     14 C1         63.2327   46.7984   10.6798 C.ar      1 MOL    -0.0171
     15 C11        62.2463   46.3064   14.1254 C.2       1 MOL     0.0459
     16 S9         60.7095   46.1415   13.4837 S.3       1 MOL    -0.1054
     17 H161       66.7020   49.3941    5.3194 H         1 MOL     0.1442
     18 H162       67.8354   48.1872    5.8843 H         1 MOL     0.1442
@<TRIPOS>BOND
     1    2    1 ar
     2    1    7 ar
     3    1   12 ar
     4    3    2 ar
     5    2    9 ar
     6   14    3 ar
     7    4    5 1 
     8    4    6 2 
     9    4   14 1 
    10    5   15 2 
    11    6   16 1 
    12    7    8 ar
    13    8   10 ar
    14    8   11 1 
    15    9   10 ar
    16   12   13 ar
    17   13   14 ar
    18   15   16 1 
    19   17   11 1 
    20   18   11 1 
@<TRIPOS>SUBSTRUCTURE
1 MOL         1
@<TRIPOS>MOLECULE
query molecule
   18    20     1     0     0
SMALL
NO_CHARGE

@<TRIPOS>ATOM
      1 C4         64.7356   47.2759    8.2950 C.ar      1 MOL     0.0725
      2 C5         64.7366   48.1999    9.3429 C.ar      1 MOL     0.0009
      3 C6         63.9689   47.9561   10.4820 C.ar      1 MOL     0.0187
      4 C7         62.4152   46.5367   11.7241 C.2       1 MOL    -0.0112
      5 C8         63.0098   46.2112   12.9074 C.2       1 MOL     0.0163
      6 C10        61.0743   46.6150   11.8044 C.2       1 MOL     0.0538
      7 N12        65.4826   47.4825    7.1984 N.ar      1 MOL    -0.2334
      8 C13        66.2525   48.5840    7.0688 C.ar      1 MOL     0.1153
      9 C15        65.5166   49.3521    9.2400 C.ar      1 MOL     0.0138
     10 C14        66.2847   49.5475    8.0856 C.ar      1 MOL     0.0445
     11 N16        66.9665   48.7617    5.9575 N.pl3     1 MOL    -0.3432
     12 C3         63.9679   46.1167    8.3971 C.ar      1 MOL     0.0295
     13 C2         63.1937   45.8760    9.5349 C.ar      1 MOL     0.0108
     14 C1         63.1764   46.8005   10.5802 C.ar      1 MOL    -0.0171
     15 C11        62.2283   45.9881   13.9756 C.2       1 MOL     0.0459
     16 S9         60.6696   46.2339   13.4184 S.3       1 MOL    -0.1054
     17 H161       66.6995   49.4750    5.2942 H         1 MOL     0.1442
     18 H162       67.7746   48.1829    5.7785 H         1 MOL     0.1442
@<TRIPOS>BOND
     1    2    1 ar
     2    1    7 ar
     3    1   12 ar
     4    3    2 ar
     5    2    9 ar
     6   14    3 ar
     7    4    5 1 
     8    4    6 2 
     9    4   14 1 
    10    5   15 2 
    11    6   16 1 
    12    7    8 ar
    13    8   10 ar
    14    8   11 1 
    15    9   10 ar
    16   12   13 ar
    17   13   14 ar
    18   15   16 1 
    19   17   11 1 
    20   18   11 1 
@<TRIPOS>SUBSTRUCTURE
1 MOL         1
@<TRIPOS>MOLECULE
query molecule
   18    20     1     0     0
SMALL
NO_CHARGE

@<TRIPOS>ATOM
      1 C4         68.6400   49.4524    8.6153 C.ar      1 MOL     0.0725
      2 C5         67.3675   49.8327    9.0490 C.ar      1 MOL     0.0009
      3 C6         67.1682   51.1088    9.5766 C.ar      1 MOL     0.0187
      4 C7         68.0474   53.2993   10.2090 C.2       1 MOL    -0.0112
      5 C8         68.3634   54.4041    9.4746 C.2       1 MOL     0.0163
      6 C10        67.5118   53.5911   11.4084 C.2       1 MOL     0.0538
      7 N12        68.8486   48.2358    8.0866 N.ar      1 MOL    -0.2334
      8 C13        67.8446   47.3421    7.9600 C.ar      1 MOL     0.1153
      9 C15        66.3079   48.9320    8.9379 C.ar      1 MOL     0.0138
     10 C14        66.5503   47.6679    8.3865 C.ar      1 MOL     0.0445
     11 N16        68.0953   46.1381    7.4461 N.pl3     1 MOL    -0.3432
     12 C3         69.7003   50.3525    8.7123 C.ar      1 MOL     0.0295
     13 C2         69.5021   51.6278    9.2471 C.ar      1 MOL     0.0108
     14 C1         68.2378   52.0113    9.6970 C.ar      1 MOL    -0.0171
     15 C11        68.1403   55.6140   10.0114 C.2       1 MOL     0.0459
     16 S9         67.4761   55.2945   11.5139 S.3       1 MOL    -0.1054
     17 H161       67.4703   45.7424    6.7584 H         1 MOL     0.1442
     18 H162       68.9103   45.6216    7.7444 H         1 MOL     0.1442
@<TRIPOS>BOND
     1    2    1 ar
     2    1    7 ar
     3    1   12 ar
     4    3    2 ar
     5    2    9 ar
     6   14    3 ar
     7    4    5 1 
     8    4    6 2 
     9    4   14 1 
    10    5   15 2 
    11    6   16 1 
    12    7    8 ar
    13    8   10 ar
    14    8   11 1 
    15    9   10 ar
    16   12   13 ar
    17   13   14 ar
    18   15   16 1 
    19   17   11 1 
    20   18   11 1 
@<TRIPOS>SUBSTRUCTURE
1 MOL         1
@<TRIPOS>MOLECULE
query molecule
   18    20     1     0     0
SMALL
NO_CHARGE

@<TRIPOS>ATOM
      1 C4         68.6424   49.4536    8.6143 C.ar      1 MOL     0.0725
      2 C5         67.3735   49.8497    9.0442 C.ar      1 MOL     0.0009
      3 C6         67.1829   51.1376    9.5456 C.ar      1 MOL     0.0187
      4 C7         68.0759   53.3361   10.1291 C.2       1 MOL    -0.0112
      5 C8         67.3353   53.5734   11.2493 C.2       1 MOL     0.0163
      6 C10        68.6214   54.4487    9.6045 C.2       1 MOL     0.0538
      7 N12        68.8427   48.2250    8.1105 N.ar      1 MOL    -0.2334
      8 C13        67.8335   47.3344    8.0060 C.ar      1 MOL     0.1153
      9 C15        66.3087   48.9527    8.9555 C.ar      1 MOL     0.0138
     10 C14        66.5425   47.6760    8.4300 C.ar      1 MOL     0.0445
     11 N16        68.0760   46.1185    7.5166 N.pl3     1 MOL    -0.3432
     12 C3         69.7078   50.3497    8.6889 C.ar      1 MOL     0.0295
     13 C2         69.5184   51.6370    9.1975 C.ar      1 MOL     0.0108
     14 C1         68.2577   52.0367    9.6435 C.ar      1 MOL    -0.0171
     15 C11        67.2125   54.8393   11.6783 C.2       1 MOL     0.0459
     16 S9         68.1125   55.7427   10.5946 S.3       1 MOL    -0.1054
     17 H161       67.4466   45.7119    6.8395 H         1 MOL     0.1442
     18 H162       68.8893   45.6039    7.8229 H         1 MOL     0.1442
@<TRIPOS>BOND
     1    2    1 ar
     2    1    7 ar
     3    1   12 ar
     4    3    2 ar
     5    2    9 ar
     6   14    3 ar
     7    4    5 1 
     8    4    6 2 
     9    4   14 1 
    10    5   15 2 
    11    6   16 1 
    12    7    8 ar
    13    8   10 ar
    14    8   11 1 
    15    9   10 ar
    16   12   13 ar
    17   13   14 ar
    18   15   16 1 
    19   17   11 1 
    20   18   11 1 
@<TRIPOS>SUBSTRUCTURE
1 MOL         1
@<TRIPOS>MOLECULE
query molecule
   18    20     1     0     0
SMALL
NO_CHARGE

@<TRIPOS>ATOM
      1 C4         70.6003   50.1108   11.7069 C.ar      1 MOL     0.0725
      2 C5         69.9233   49.4611   10.6718 C.ar      1 MOL     0.0009
      3 C6         68.5546   49.6708   10.5005 C.ar      1 MOL     0.0187
      4 C7         66.4734   50.7441   11.1991 C.2       1 MOL    -0.0112
      5 C8         66.0214   51.8607   10.5599 C.2       1 MOL     0.0163
      6 C10        65.4875   49.9123   11.5818 C.2       1 MOL     0.0538
      7 N12        71.9210   49.9375   11.8768 N.ar      1 MOL    -0.2334
      8 C13        72.6355   49.1324   11.0620 C.ar      1 MOL     0.1153
      9 C15        70.6297   48.6175    9.8141 C.ar      1 MOL     0.0138
     10 C14        72.0056   48.4497   10.0130 C.ar      1 MOL     0.0445
     11 N16        73.9417   48.9726   11.2738 N.pl3     1 MOL    -0.3432
     12 C3         69.9022   50.9648   12.5596 C.ar      1 MOL     0.0295
     13 C2         68.5303   51.1693   12.3923 C.ar      1 MOL     0.0108
     14 C1         67.8426   50.5128   11.3706 C.ar      1 MOL    -0.0171
     15 C11        64.6971   52.0185   10.4081 C.2       1 MOL     0.0459
     16 S9         64.0255   50.6527   11.1039 S.3       1 MOL    -0.1054
     17 H161       74.4462   49.6377   11.8424 H         1 MOL     0.1442
     18 H162       74.4270   48.1864   10.8657 H         1 MOL     0.1442
@<TRIPOS>BOND
     1    2    1 ar
     2    1    7 ar
     3    1   12 ar
     4    3    2 ar
     5    2    9 ar
     6   14    3 ar
     7    4    5 1 
     8    4    6 2 
     9    4   14 1 
    10    5   15 2 
    11    6   16 1 
    12    7    8 ar
    13    8   10 ar
    14    8   11 1 
    15    9   10 ar
    16   12   13 ar
    17   13   14 ar
    18   15   16 1 
    19   17   11 1 
    20   18   11 1 
@<TRIPOS>SUBSTRUCTURE
1 MOL         1
@<TRIPOS>MOLECULE
query molecule
   18    20     1     0     0
SMALL
NO_CHARGE

@<TRIPOS>ATOM
      1 C4         70.8096   50.0835   11.6592 C.ar      1 MOL     0.0725
      2 C5         70.1042   49.4160   10.6549 C.ar      1 MOL     0.0009
      3 C6         68.7473   49.6815   10.4679 C.ar      1 MOL     0.0187
      4 C7         66.7183   50.8854   11.1042 C.2       1 MOL    -0.0112
      5 C8         65.7486   50.0514   11.5772 C.2       1 MOL     0.0163
      6 C10        66.2294   51.9872   10.5063 C.2       1 MOL     0.0538
      7 N12        72.1203   49.8566   11.8427 N.ar      1 MOL    -0.2334
      8 C13        72.7971   48.9790   11.0716 C.ar      1 MOL     0.1153
      9 C15        70.7712   48.4983    9.8429 C.ar      1 MOL     0.0138
     10 C14        72.1372   48.2757   10.0553 C.ar      1 MOL     0.0445
     11 N16        74.0939   48.7684   11.2963 N.pl3     1 MOL    -0.3432
     12 C3         70.1514   51.0109   12.4658 C.ar      1 MOL     0.0295
     13 C2         68.7911   51.2716   12.2831 C.ar      1 MOL     0.0108
     14 C1         68.0746   50.5984   11.2924 C.ar      1 MOL    -0.0171
     15 C11        64.4641   50.3893   11.3833 C.2       1 MOL     0.0459
     16 S9         64.5290   51.8543   10.5770 S.3       1 MOL    -0.1054
     17 H161       74.4628   47.8283   11.2818 H         1 MOL     0.1442
     18 H162       74.7077   49.5489   11.4811 H         1 MOL     0.1442
@<TRIPOS>BOND
     1    2    1 ar
     2    1    7 ar
     3    1   12 ar
     4    3    2 ar
     5    2    9 ar
     6   14    3 ar
     7    4    5 1 
     8    4    6 2 
     9    4   14 1 
    10    5   15 2 
    11    6   16 1 
    12    7    8 ar
    13    8   10 ar
    14    8   11 1 
    15    9   10 ar
    16   12   13 ar
    17   13   14 ar
    18   15   16 1 
    19   17   11 1 
    20   18   11 1 
@<TRIPOS>SUBSTRUCTURE
1 MOL         1
@<TRIPOS>MOLECULE
query molecule
   18    20     1     0     0
SMALL
NO_CHARGE

@<TRIPOS>ATOM
      1 C4         66.3068   48.2447    7.9247 C.ar      1 MOL     0.0725
      2 C5         65.7957   48.5586    9.1865 C.ar      1 MOL     0.0009
      3 C6         66.4022   49.5558    9.9510 C.ar      1 MOL     0.0187
      4 C7         68.1429   51.2488   10.2256 C.2       1 MOL    -0.0112
      5 C8         69.0535   50.9574   11.1980 C.2       1 MOL     0.0163
      6 C10        67.9482   52.5692   10.0552 C.2       1 MOL     0.0538
      7 N12        65.7260   47.3018    7.1653 N.ar      1 MOL    -0.2334
      8 C13        64.6381   46.6260    7.5925 C.ar      1 MOL     0.1153
      9 C15        64.6756   47.8761    9.6616 C.ar      1 MOL     0.0138
     10 C14        64.0891   46.8945    8.8533 C.ar      1 MOL     0.0445
     11 N16        64.1005   45.6849    6.8166 N.pl3     1 MOL    -0.3432
     12 C3         67.4185   48.9320    7.4393 C.ar      1 MOL     0.0295
     13 C2         68.0299   49.9257    8.2077 C.ar      1 MOL     0.0108
     14 C1         67.5359   50.2356    9.4757 C.ar      1 MOL    -0.0171
     15 C11        69.6171   51.9728   11.8711 C.2       1 MOL     0.0459
     16 S9         68.9505   53.3507   11.1947 S.3       1 MOL    -0.1054
     17 H161       63.7273   45.9298    5.9106 H         1 MOL     0.1442
     18 H162       64.0665   44.7269    7.1347 H         1 MOL     0.1442
@<TRIPOS>BOND
     1    2    1 ar
     2    1    7 ar
     3    1   12 ar
     4    3    2 ar
     5    2    9 ar
     6   14    3 ar
     7    4    5 1 
     8    4    6 2 
     9    4   14 1 
    10    5   15 2 
    11    6   16 1 
    12    7    8 ar
    13    8   10 ar
    14    8   11 1 
    15    9   10 ar
    16   12   13 ar
    17   13   14 ar
    18   15   16 1 
    19   17   11 1 
    20   18   11 1 
@<TRIPOS>SUBSTRUCTURE
1 MOL         1
@<TRIPOS>MOLECULE
query molecule
   18    20     1     0     0
SMALL
NO_CHARGE

@<TRIPOS>ATOM
      1 C4         66.2962   48.2392    7.9272 C.ar      1 MOL     0.0725
      2 C5         65.8196   48.4945    9.2154 C.ar      1 MOL     0.0009
      3 C6         66.4101   49.4962    9.9864 C.ar      1 MOL     0.0187
      4 C7         68.0839   51.2574   10.2476 C.2       1 MOL    -0.0112
      5 C8         68.6879   50.9897   11.4406 C.2       1 MOL     0.0163
      6 C10        68.1651   52.5511    9.8867 C.2       1 MOL     0.0538
      7 N12        65.7291   47.2927    7.1618 N.ar      1 MOL    -0.2334
      8 C13        64.6887   46.5570    7.6081 C.ar      1 MOL     0.1153
      9 C15        64.7491   47.7494    9.7105 C.ar      1 MOL     0.0138
     10 C14        64.1763   46.7654    8.8954 C.ar      1 MOL     0.0445
     11 N16        64.1642   45.6148    6.8248 N.pl3     1 MOL    -0.3432
     12 C3         67.3576   48.9889    7.4222 C.ar      1 MOL     0.0295
     13 C2         67.9533   49.9873    8.1969 C.ar      1 MOL     0.0108
     14 C1         67.4941   50.2393    9.4906 C.ar      1 MOL    -0.0171
     15 C11        69.2537   52.0045   12.1127 C.2       1 MOL     0.0459
     16 S9         69.0062   53.3451   11.1421 S.3       1 MOL    -0.1054
     17 H161       63.6551   45.8757    5.9924 H         1 MOL     0.1442
     18 H162       64.2758   44.6398    7.0636 H         1 MOL     0.1442
@<TRIPOS>BOND
     1    2    1 ar
     2    1    7 ar
     3    1   12 ar
     4    3    2 ar
     5    2    9 ar
     6   14    3 ar
     7    4    5 1 
     8    4    6 2 
     9    4   14 1 
    10    5   15 2 
    11    6   16 1 
    12    7    8 ar
    13    8   10 ar
    14    8   11 1 
    15    9   10 ar
    16   12   13 ar
    17   13   14 ar
    18   15   16 1 
    19   17   11 1 
    20   18   11 1 
@<TRIPOS>SUBSTRUCTURE
1 MOL         1
@<TRIPOS>MOLECULE
query molecule
   18    20     1     0     0
SMALL
NO_CHARGE

@<TRIPOS>ATOM
      1 C4         71.1773   50.6929   13.4063 C.ar      1 MOL     0.0725
      2 C5         71.2044   50.6803   12.0095 C.ar      1 MOL     0.0009
      3 C6         70.4220   51.5866   11.2934 C.ar      1 MOL     0.0187
      4 C7         68.8125   53.4249   11.2538 C.2       1 MOL    -0.0112
      5 C8         67.5834   53.8053   11.7059 C.2       1 MOL     0.0163
      6 C10        69.1846   54.0557   10.1250 C.2       1 MOL     0.0538
      7 N12        71.9375   49.8419   14.1141 N.ar      1 MOL    -0.2334
      8 C13        72.7461   48.9480   13.5058 C.ar      1 MOL     0.1153
      9 C15        72.0247   49.7660   11.3481 C.ar      1 MOL     0.0138
     10 C14        72.8059   48.8862   12.1074 C.ar      1 MOL     0.0445
     11 N16        73.4723   48.1082   14.2433 N.pl3     1 MOL    -0.3432
     12 C3         70.3690   51.6125   14.0731 C.ar      1 MOL     0.0295
     13 C2         69.5802   52.5154   13.3559 C.ar      1 MOL     0.0108
     14 C1         69.5891   52.5002   11.9603 C.ar      1 MOL    -0.0171
     15 C11        66.8929   54.7109   10.9954 C.2       1 MOL     0.0459
     16 S9         67.8932   55.0916    9.7089 S.3       1 MOL    -0.1054
     17 H161       73.3731   48.1033   15.2483 H         1 MOL     0.1442
     18 H162       74.1220   47.4767   13.7969 H         1 MOL     0.1442
@<TRIPOS>BOND
     1    2    1 ar
     2    1    7 ar
     3    1   12 ar
     4    3    2 ar
     5    2    9 ar
     6   14    3 ar
     7    4    5 1 
     8    4    6 2 
     9    4   14 1 
    10    5   15 2 
    11    6   16 1 
    12    7    8 ar
    13    8   10 ar
    14    8   11 1 
    15    9   10 ar
    16   12   13 ar
    17   13   14 ar
    18   15   16 1 
    19   17   11 1 
    20   18   11 1 
@<TRIPOS>SUBSTRUCTURE
1 MOL         1
@<TRIPOS>MOLECULE
query molecule
   18    20     1     0     0
SMALL
NO_CHARGE

@<TRIPOS>ATOM
      1 C4         71.2895   50.5254   13.1623 C.ar      1 MOL     0.0725
      2 C5         71.2872   50.4999   11.7654 C.ar      1 MOL     0.0009
      3 C6         70.5345   51.4368   11.0567 C.ar      1 MOL     0.0187
      4 C7         69.0144   53.3499   11.0324 C.2       1 MOL    -0.0112
      5 C8         68.0157   54.0500   11.6425 C.2       1 MOL     0.0163
      6 C10        69.2131   53.7102    9.7513 C.2       1 MOL     0.0538
      7 N12        72.0224   49.6448   13.8626 N.ar      1 MOL    -0.2334
      8 C13        72.7746   48.7081   13.2465 C.ar      1 MOL     0.1153
      9 C15        72.0491   49.5417   11.0961 C.ar      1 MOL     0.0138
     10 C14        72.8026   48.6318   11.8477 C.ar      1 MOL     0.0445
     11 N16        73.4748   47.8405   13.9770 N.pl3     1 MOL    -0.3432
     12 C3         70.5400   51.4884   13.8366 C.ar      1 MOL     0.0295
     13 C2         69.7808   52.4221   13.1270 C.ar      1 MOL     0.0108
     14 C1         69.7602   52.3949   11.7317 C.ar      1 MOL    -0.0171
     15 C11        67.3478   54.9673   10.9255 C.2       1 MOL     0.0459
     16 S9         68.0644   54.9270    9.4138 S.3       1 MOL    -0.1054
     17 H161       73.0979   47.4930   14.8471 H         1 MOL     0.1442
     18 H162       74.3825   47.5307   13.6603 H         1 MOL     0.1442
@<TRIPOS>BOND
     1    2    1 ar
     2    1    7 ar
     3    1   12 ar
     4    3    2 ar
     5    2    9 ar
     6   14    3 ar
     7    4    5 1 
     8    4    6 2 
     9    4   14 1 
    10    5   15 2 
    11    6   16 1 
    12    7    8 ar
    13    8   10 ar
    14    8   11 1 
    15    9   10 ar
    16   12   13 ar
    17   13   14 ar
    18   15   16 1 
    19   17   11 1 
    20   18   11 1 
@<TRIPOS>SUBSTRUCTURE
1 MOL         1
@<TRIPOS>MOLECULE
query molecule
   18    20     1     0     0
SMALL
NO_CHARGE

@<TRIPOS>ATOM
      1 C4         73.9072   48.9531    7.1931 C.ar      1 MOL     0.0725
      2 C5         72.5227   49.0975    7.0732 C.ar      1 MOL     0.0009
      3 C6         71.7719   49.5136    8.1730 C.ar      1 MOL     0.0187
      4 C7         71.6494   50.2033   10.5141 C.2       1 MOL    -0.0112
      5 C8         72.0711   49.9538   11.7868 C.2       1 MOL     0.0163
      6 C10        70.5145   50.9242   10.4597 C.2       1 MOL     0.0538
      7 N12        74.6501   48.5725    6.1413 N.ar      1 MOL    -0.2334
      8 C13        74.0895   48.3141    4.9406 C.ar      1 MOL     0.1153
      9 C15        71.9096   48.8336    5.8481 C.ar      1 MOL     0.0138
     10 C14        72.7045   48.4348    4.7665 C.ar      1 MOL     0.0445
     11 N16        74.8587   47.9219    3.9252 N.pl3     1 MOL    -0.3432
     12 C3         74.5272   49.2273    8.4113 C.ar      1 MOL     0.0295
     13 C2         73.7745   49.6372    9.5146 C.ar      1 MOL     0.0108
     14 C1         72.3891   49.7696    9.4086 C.ar      1 MOL    -0.0171
     15 C11        71.3294   50.4118   12.8075 C.2       1 MOL     0.0459
     16 S9         70.0535   51.2120   12.0778 S.3       1 MOL    -0.1054
     17 H161       75.5087   48.5702    3.5042 H         1 MOL     0.1442
     18 H162       74.7915   46.9763    3.5767 H         1 MOL     0.1442
@<TRIPOS>BOND
     1    2    1 ar
     2    1    7 ar
     3    1   12 ar
     4    3    2 ar
     5    2    9 ar
     6   14    3 ar
     7    4    5 1 
     8    4    6 2 
     9    4   14 1 
    10    5   15 2 
    11    6   16 1 
    12    7    8 ar
    13    8   10 ar
    14    8   11 1 
    15    9   10 ar
    16   12   13 ar
    17   13   14 ar
    18   15   16 1 
    19   17   11 1 
    20   18   11 1 
@<TRIPOS>SUBSTRUCTURE
1 MOL         1
@<TRIPOS>MOLECULE
query molecule
   18    20     1     0     0
SMALL
NO_CHARGE

@<TRIPOS>ATOM
      1 C4         73.9101   48.9315    7.1967 C.ar      1 MOL     0.0725
      2 C5         72.5258   49.0633    7.0623 C.ar      1 MOL     0.0009
      3 C6         71.7498   49.3896    8.1749 C.ar      1 MOL     0.0187
      4 C7         71.5766   49.9109   10.5560 C.2       1 MOL    -0.0112
      5 C8         72.1655   50.3482   11.7056 C.2       1 MOL     0.0163
      6 C10        70.2324   49.8984   10.6163 C.2       1 MOL     0.0538
      7 N12        74.6768   48.6370    6.1343 N.ar      1 MOL    -0.2334
      8 C13        74.1409   48.4554    4.9086 C.ar      1 MOL     0.1153
      9 C15        71.9378   48.8770    5.8109 C.ar      1 MOL     0.0138
     10 C14        72.7572   48.5673    4.7184 C.ar      1 MOL     0.0445
     11 N16        74.9334   48.1471    3.8822 N.pl3     1 MOL    -0.3432
     12 C3         74.5050   49.1285    8.4421 C.ar      1 MOL     0.0295
     13 C2         73.7271   49.4485    9.5576 C.ar      1 MOL     0.0108
     14 C1         72.3418   49.5673    9.4363 C.ar      1 MOL    -0.0171
     15 C11        71.3784   50.6820   12.7403 C.2       1 MOL     0.0459
     16 S9         69.8197   50.4367   12.1828 S.3       1 MOL    -0.1054
     17 H161       75.9288   48.0517    4.0236 H         1 MOL     0.1442
     18 H162       74.5384   48.0089    2.9630 H         1 MOL     0.1442
@<TRIPOS>BOND
     1    2    1 ar
     2    1    7 ar
     3    1   12 ar
     4    3    2 ar
     5    2    9 ar
     6   14    3 ar
     7    4    5 1 
     8    4    6 2 
     9    4   14 1 
    10    5   15 2 
    11    6   16 1 
    12    7    8 ar
    13    8   10 ar
    14    8   11 1 
    15    9   10 ar
    16   12   13 ar
    17   13   14 ar
    18   15   16 1 
    19   17   11 1 
    20   18   11 1 
@<TRIPOS>SUBSTRUCTURE
1 MOL         1
@<TRIPOS>MOLECULE
query molecule
   18    20     1     0     0
SMALL
NO_CHARGE

@<TRIPOS>ATOM
      1 C4         73.9072   48.9531    7.1931 C.ar      1 MOL     0.0725
      2 C5         72.5227   49.0975    7.0732 C.ar      1 MOL     0.0009
      3 C6         71.7719   49.5136    8.1730 C.ar      1 MOL     0.0187
      4 C7         71.6494   50.2033   10.5141 C.2       1 MOL    -0.0112
      5 C8         72.0712   49.9539   11.7868 C.2       1 MOL     0.0163
      6 C10        70.5146   50.9242   10.4597 C.2       1 MOL     0.0538
      7 N12        74.6501   48.5725    6.1413 N.ar      1 MOL    -0.2334
      8 C13        74.0895   48.3141    4.9406 C.ar      1 MOL     0.1153
      9 C15        71.9096   48.8336    5.8482 C.ar      1 MOL     0.0138
     10 C14        72.7045   48.4348    4.7665 C.ar      1 MOL     0.0445
     11 N16        74.8586   47.9218    3.9252 N.pl3     1 MOL    -0.3432
     12 C3         74.5272   49.2273    8.4113 C.ar      1 MOL     0.0295
     13 C2         73.7745   49.6372    9.5146 C.ar      1 MOL     0.0108
     14 C1         72.3891   49.7697    9.4086 C.ar      1 MOL    -0.0171
     15 C11        71.3294   50.4119   12.8075 C.2       1 MOL     0.0459
     16 S9         70.0535   51.2121   12.0778 S.3       1 MOL    -0.1054
     17 H161       75.8003   48.2765    3.8385 H         1 MOL     0.1442
     18 H162       74.4998   47.2698    3.2424 H         1 MOL     0.1442
@<TRIPOS>BOND
     1    2    1 ar
     2    1    7 ar
     3    1   12 ar
     4    3    2 ar
     5    2    9 ar
     6   14    3 ar
     7    4    5 1 
     8    4    6 2 
     9    4   14 1 
    10    5   15 2 
    11    6   16 1 
    12    7    8 ar
    13    8   10 ar
    14    8   11 1 
    15    9   10 ar
    16   12   13 ar
    17   13   14 ar
    18   15   16 1 
    19   17   11 1 
    20   18   11 1 
@<TRIPOS>SUBSTRUCTURE
1 MOL         1
@<TRIPOS>MOLECULE
query molecule
   18    20     1     0     0
SMALL
NO_CHARGE

@<TRIPOS>ATOM
      1 C4         69.2451   51.0462   12.6975 C.ar      1 MOL     0.0725
      2 C5         68.7600   50.5491   11.4852 C.ar      1 MOL     0.0009
      3 C6         69.6542   50.1920   10.4756 C.ar      1 MOL     0.0187
      4 C7         71.9464   49.9758    9.6566 C.2       1 MOL    -0.0112
      5 C8         72.1105   50.7354    8.5360 C.2       1 MOL     0.0163
      6 C10        72.7610   48.9057    9.7000 C.2       1 MOL     0.0538
      7 N12        68.4020   51.3773   13.6888 N.ar      1 MOL    -0.2334
      8 C13        67.0655   51.2464   13.5490 C.ar      1 MOL     0.1153
      9 C15        67.3841   50.4059   11.3045 C.ar      1 MOL     0.0138
     10 C14        66.5243   50.7610   12.3512 C.ar      1 MOL     0.0445
     11 N16        66.2605   51.6024   14.5499 N.pl3     1 MOL    -0.3432
     12 C3         70.6196   51.1799   12.8886 C.ar      1 MOL     0.0295
     13 C2         71.5147   50.8288   11.8750 C.ar      1 MOL     0.0108
     14 C1         71.0389   50.3458   10.6551 C.ar      1 MOL    -0.0171
     15 C11        73.0102   50.3400    7.6217 C.2       1 MOL     0.0459
     16 S9         73.6765   48.9437    8.2598 S.3       1 MOL    -0.1054
     17 H161       66.4506   52.4430   15.0764 H         1 MOL     0.1442
     18 H162       65.4604   51.0313   14.7818 H         1 MOL     0.1442
@<TRIPOS>BOND
     1    2    1 ar
     2    1    7 ar
     3    1   12 ar
     4    3    2 ar
     5    2    9 ar
     6   14    3 ar
     7    4    5 1 
     8    4    6 2 
     9    4   14 1 
    10    5   15 2 
    11    6   16 1 
    12    7    8 ar
    13    8   10 ar
    14    8   11 1 
    15    9   10 ar
    16   12   13 ar
    17   13   14 ar
    18   15   16 1 
    19   17   11 1 
    20   18   11 1 
@<TRIPOS>SUBSTRUCTURE
1 MOL         1
@<TRIPOS>MOLECULE
query molecule
   18    20     1     0     0
SMALL
NO_CHARGE

@<TRIPOS>ATOM
      1 C4         69.7977   50.9954   12.5772 C.ar      1 MOL     0.0725
      2 C5         69.3490   50.7665   11.2741 C.ar      1 MOL     0.0009
      3 C6         70.2589   50.3973   10.2830 C.ar      1 MOL     0.0187
      4 C7         72.5471   49.8872    9.5935 C.2       1 MOL    -0.0112
      5 C8         73.4417   48.8834    9.8209 C.2       1 MOL     0.0163
      6 C10        72.6255   50.4008    8.3523 C.2       1 MOL     0.0538
      7 N12        68.9353   51.3326   13.5497 N.ar      1 MOL    -0.2334
      8 C13        67.6144   51.4652   13.3038 C.ar      1 MOL     0.1153
      9 C15        67.9910   50.8999   10.9834 C.ar      1 MOL     0.0138
     10 C14        67.1112   51.2557   12.0130 C.ar      1 MOL     0.0445
     11 N16        66.7926   51.8183   14.2919 N.pl3     1 MOL    -0.3432
     12 C3         71.1518   50.8516   12.8766 C.ar      1 MOL     0.0295
     13 C2         72.0639   50.4887   11.8826 C.ar      1 MOL     0.0108
     14 C1         71.6274   50.2729   10.5747 C.ar      1 MOL    -0.0171
     15 C11        74.2867   48.5445    8.8346 C.2       1 MOL     0.0459
     16 S9         73.8821   49.5559    7.5643 S.3       1 MOL    -0.1054
     17 H161       65.9571   52.3482   14.0890 H         1 MOL     0.1442
     18 H162       67.0054   51.5559   15.2437 H         1 MOL     0.1442
@<TRIPOS>BOND
     1    2    1 ar
     2    1    7 ar
     3    1   12 ar
     4    3    2 ar
     5    2    9 ar
     6   14    3 ar
     7    4    5 1 
     8    4    6 2 
     9    4   14 1 
    10    5   15 2 
    11    6   16 1 
    12    7    8 ar
    13    8   10 ar
    14    8   11 1 
    15    9   10 ar
    16   12   13 ar
    17   13   14 ar
    18   15   16 1 
    19   17   11 1 
    20   18   11 1 
@<TRIPOS>SUBSTRUCTURE
1 MOL         1
@<TRIPOS>MOLECULE
query molecule
   18    20     1     0     0
SMALL
NO_CHARGE

@<TRIPOS>ATOM
      1 C4         69.2550   51.0921   12.7492 C.ar      1 MOL     0.0725
      2 C5         68.7889   50.6572   11.5060 C.ar      1 MOL     0.0009
      3 C6         69.6995   50.3196   10.5043 C.ar      1 MOL     0.0187
      4 C7         72.0057   50.0803    9.7326 C.2       1 MOL    -0.0112
      5 C8         71.9257   50.6045    8.4762 C.2       1 MOL     0.0163
      6 C10        73.0597   49.2614    9.9031 C.2       1 MOL     0.0538
      7 N12        68.3954   51.4032   13.7327 N.ar      1 MOL    -0.2334
      8 C13        67.0601   51.3113   13.5554 C.ar      1 MOL     0.1153
      9 C15        67.4149   50.5557   11.2863 C.ar      1 MOL     0.0138
     10 C14        66.5378   50.8889   12.3258 C.ar      1 MOL     0.0445
     11 N16        66.2389   51.6459   14.5504 N.pl3     1 MOL    -0.3432
     12 C3         70.6271   51.1838   12.9788 C.ar      1 MOL     0.0295
     13 C2         71.5388   50.8523   11.9735 C.ar      1 MOL     0.0108
     14 C1         71.0825   50.4316   10.7234 C.ar      1 MOL    -0.0171
     15 C11        72.8516   50.2450    7.5733 C.2       1 MOL     0.0459
     16 S9         73.8698   49.2069    8.4015 S.3       1 MOL    -0.1054
     17 H161       66.4356   52.4593   15.1158 H         1 MOL     0.1442
     18 H162       65.4198   51.0858   14.7391 H         1 MOL     0.1442
@<TRIPOS>BOND
     1    2    1 ar
     2    1    7 ar
     3    1   12 ar
     4    3    2 ar
     5    2    9 ar
     6   14    3 ar
     7    4    5 1 
     8    4    6 2 
     9    4   14 1 
    10    5   15 2 
    11    6   16 1 
    12    7    8 ar
    13    8   10 ar
    14    8   11 1 
    15    9   10 ar
    16   12   13 ar
    17   13   14 ar
    18   15   16 1 
    19   17   11 1 
    20   18   11 1 
@<TRIPOS>SUBSTRUCTURE
1 MOL         1
@<TRIPOS>MOLECULE
query molecule
   18    20     1     0     0
SMALL
NO_CHARGE

@<TRIPOS>ATOM
      1 C4         69.9794   47.9630    9.2612 C.ar      1 MOL     0.0725
      2 C5         71.2444   47.7356    9.8090 C.ar      1 MOL     0.0009
      3 C6         71.6941   48.5276   10.8658 C.ar      1 MOL     0.0187
      4 C7         71.3305   50.3575   12.4440 C.2       1 MOL    -0.0112
      5 C8         72.3210   49.9323   13.2794 C.2       1 MOL     0.0163
      6 C10        70.8790   51.5910   12.7361 C.2       1 MOL     0.0538
      7 N12        69.5203   47.1993    8.2566 N.ar      1 MOL    -0.2334
      8 C13        70.2607   46.1947    7.7415 C.ar      1 MOL     0.1153
      9 C15        72.0385   46.7090    9.2972 C.ar      1 MOL     0.0138
     10 C14        71.5398   45.9281    8.2473 C.ar      1 MOL     0.0445
     11 N16        69.7769   45.4701    6.7328 N.pl3     1 MOL    -0.3432
     12 C3         69.1762   48.9793    9.7765 C.ar      1 MOL     0.0295
     13 C2         69.6294   49.7769   10.8302 C.ar      1 MOL     0.0108
     14 C1         70.8976   49.5672   11.3738 C.ar      1 MOL    -0.0171
     15 C11        72.7076   50.7426   14.2772 C.2       1 MOL     0.0459
     16 S9         71.7607   52.1113   14.1020 S.3       1 MOL    -0.1054
     17 H161       69.5767   44.4891    6.8662 H         1 MOL     0.1442
     18 H162       69.6103   45.9019    5.8352 H         1 MOL     0.1442
@<TRIPOS>BOND
     1    2    1 ar
     2    1    7 ar
     3    1   12 ar
     4    3    2 ar
     5    2    9 ar
     6   14    3 ar
     7    4    5 1 
     8    4    6 2 
     9    4   14 1 
    10    5   15 2 
    11    6   16 1 
    12    7    8 ar
    13    8   10 ar
    14    8   11 1 
    15    9   10 ar
    16   12   13 ar
    17   13   14 ar
    18   15   16 1 
    19   17   11 1 
    20   18   11 1 
@<TRIPOS>SUBSTRUCTURE
1 MOL         1
@<TRIPOS>MOLECULE
query molecule
   18    20     1     0     0
SMALL
NO_CHARGE

@<TRIPOS>ATOM
      1 C4         70.0334   47.9541    9.1870 C.ar      1 MOL     0.0725
      2 C5         71.2879   47.6840    9.7395 C.ar      1 MOL     0.0009
      3 C6         71.7572   48.4559   10.8027 C.ar      1 MOL     0.0187
      4 C7         71.4438   50.2880   12.3891 C.2       1 MOL    -0.0112
      5 C8         72.3224   49.7801   13.3000 C.2       1 MOL     0.0163
      6 C10        71.1211   51.5739   12.6185 C.2       1 MOL     0.0538
      7 N12        69.5553   47.2107    8.1761 N.ar      1 MOL    -0.2334
      8 C13        70.2661   46.1859    7.6590 C.ar      1 MOL     0.1153
      9 C15        72.0516   46.6356    9.2259 C.ar      1 MOL     0.0138
     10 C14        71.5337   45.8764    8.1694 C.ar      1 MOL     0.0445
     11 N16        69.7646   45.4823    6.6442 N.pl3     1 MOL    -0.3432
     12 C3         69.2601   48.9926    9.7041 C.ar      1 MOL     0.0295
     13 C2         69.7331   49.7699   10.7642 C.ar      1 MOL     0.0108
     14 C1         70.9914   49.5174   11.3125 C.ar      1 MOL    -0.0171
     15 C11        72.7359   50.5734   14.3007 C.2       1 MOL     0.0459
     16 S9         71.9679   52.0349   14.0272 S.3       1 MOL    -0.1054
     17 H161       69.5330   44.5075    6.7712 H         1 MOL     0.1442
     18 H162       69.6161   45.9239    5.7481 H         1 MOL     0.1442
@<TRIPOS>BOND
     1    2    1 ar
     2    1    7 ar
     3    1   12 ar
     4    3    2 ar
     5    2    9 ar
     6   14    3 ar
     7    4    5 1 
     8    4    6 2 
     9    4   14 1 
    10    5   15 2 
    11    6   16 1 
    12    7    8 ar
    13    8   10 ar
    14    8   11 1 
    15    9   10 ar
    16   12   13 ar
    17   13   14 ar
    18   15   16 1 
    19   17   11 1 
    20   18   11 1 
@<TRIPOS>SUBSTRUCTURE
1 MOL         1
@<TRIPOS>MOLECULE
query molecule
   18    20     1     0     0
SMALL
NO_CHARGE

@<TRIPOS>ATOM
      1 C4         69.7237   47.8995    9.1678 C.ar      1 MOL     0.0725
      2 C5         70.9205   47.4389    9.7224 C.ar      1 MOL     0.0009
      3 C6         71.5213   48.1502   10.7614 C.ar      1 MOL     0.0187
      4 C7         71.5318   50.0511   12.2970 C.2       1 MOL    -0.0112
      5 C8         72.5556   49.5212   13.0254 C.2       1 MOL     0.0163
      6 C10        71.2036   51.3019   12.6690 C.2       1 MOL     0.0538
      7 N12        69.1194   47.2192    8.1803 N.ar      1 MOL    -0.2334
      8 C13        69.6449   46.0766    7.6893 C.ar      1 MOL     0.1153
      9 C15        71.4942   46.2643    9.2353 C.ar      1 MOL     0.0138
     10 C14        70.8477   45.5738    8.2028 C.ar      1 MOL     0.0445
     11 N16        69.0241   45.4393    6.6968 N.pl3     1 MOL    -0.3432
     12 C3         69.1389   49.0661    9.6587 C.ar      1 MOL     0.0295
     13 C2         69.7442   49.7820   10.6945 C.ar      1 MOL     0.0108
     14 C1         70.9477   49.3380   11.2444 C.ar      1 MOL    -0.0171
     15 C11        73.0889   50.2606   14.0106 C.2       1 MOL     0.0459
     16 S9         72.2384   51.7012   13.9665 S.3       1 MOL    -0.1054
     17 H161       68.2100   45.8509    6.2635 H         1 MOL     0.1442
     18 H162       69.3678   44.5446    6.3782 H         1 MOL     0.1442
@<TRIPOS>BOND
     1    2    1 ar
     2    1    7 ar
     3    1   12 ar
     4    3    2 ar
     5    2    9 ar
     6   14    3 ar
     7    4    5 1 
     8    4    6 2 
     9    4   14 1 
    10    5   15 2 
    11    6   16 1 
    12    7    8 ar
    13    8   10 ar
    14    8   11 1 
    15    9   10 ar
    16   12   13 ar
    17   13   14 ar
    18   15   16 1 
    19   17   11 1 
    20   18   11 1 
@<TRIPOS>SUBSTRUCTURE
1 MOL         1
@<TRIPOS>MOLECULE
query molecule
   18    20     1     0     0
SMALL
NO_CHARGE

@<TRIPOS>ATOM
      1 C4         73.7289   48.0812    9.7736 C.ar      1 MOL     0.0725
      2 C5         73.2184   49.2889    9.2912 C.ar      1 MOL     0.0009
      3 C6         72.4956   50.1248   10.1428 C.ar      1 MOL     0.0187
      4 C7         71.5467   50.5941   12.3453 C.2       1 MOL    -0.0112
      5 C8         70.1867   50.6776   12.2905 C.2       1 MOL     0.0163
      6 C10        72.0885   51.3443   13.3221 C.2       1 MOL     0.0538
      7 N12        74.4437   47.2718    8.9755 N.ar      1 MOL    -0.2334
      8 C13        74.6894   47.5919    7.6872 C.ar      1 MOL     0.1153
      9 C15        73.4489   49.6487    7.9631 C.ar      1 MOL     0.0138
     10 C14        74.1941   48.7870    7.1489 C.ar      1 MOL     0.0445
     11 N16        75.3885   46.7539    6.9219 N.pl3     1 MOL    -0.3432
     12 C3         73.5125   47.7219   11.1032 C.ar      1 MOL     0.0295
     13 C2         72.7827   48.5558   11.9541 C.ar      1 MOL     0.0108
     14 C1         72.2559   49.7569   11.4771 C.ar      1 MOL    -0.0171
     15 C11        69.5600   51.4833   13.1622 C.2       1 MOL     0.0459
     16 S9         70.7875   52.1335   14.0955 S.3       1 MOL    -0.1054
     17 H161       74.9299   45.9673    6.4848 H         1 MOL     0.1442
     18 H162       76.3768   46.9054    6.7792 H         1 MOL     0.1442
@<TRIPOS>BOND
     1    2    1 ar
     2    1    7 ar
     3    1   12 ar
     4    3    2 ar
     5    2    9 ar
     6   14    3 ar
     7    4    5 1 
     8    4    6 2 
     9    4   14 1 
    10    5   15 2 
    11    6   16 1 
    12    7    8 ar
    13    8   10 ar
    14    8   11 1 
    15    9   10 ar
    16   12   13 ar
    17   13   14 ar
    18   15   16 1 
    19   17   11 1 
    20   18   11 1 
@<TRIPOS>SUBSTRUCTURE
1 MOL         1
@<TRIPOS>MOLECULE
query molecule
   18    20     1     0     0
SMALL
NO_CHARGE

@<TRIPOS>ATOM
      1 C4         73.7263   48.0186    9.8105 C.ar      1 MOL     0.0725
      2 C5         73.2694   49.2660    9.3779 C.ar      1 MOL     0.0009
      3 C6         72.5326   50.0727   10.2456 C.ar      1 MOL     0.0187
      4 C7         71.5017   50.4433   12.4300 C.2       1 MOL    -0.0112
      5 C8         72.0407   50.8511   13.6144 C.2       1 MOL     0.0163
      6 C10        70.2666   50.9298   12.2101 C.2       1 MOL     0.0538
      7 N12        74.4535   47.2355    8.9974 N.ar      1 MOL    -0.2334
      8 C13        74.7634   47.6212    7.7412 C.ar      1 MOL     0.1153
      9 C15        73.5668   49.6939    8.0838 C.ar      1 MOL     0.0138
     10 C14        74.3237   48.8587    7.2529 C.ar      1 MOL     0.0445
     11 N16        75.4726   46.8081    6.9586 N.pl3     1 MOL    -0.3432
     12 C3         73.4430   47.5908   11.1068 C.ar      1 MOL     0.0295
     13 C2         72.6992   48.3956   11.9733 C.ar      1 MOL     0.0108
     14 C1         72.2255   49.6367   11.5451 C.ar      1 MOL    -0.0171
     15 C11        71.3055   51.6402   14.4134 C.2       1 MOL     0.0459
     16 S9         69.8742   51.8727   13.5780 S.3       1 MOL    -0.1054
     17 H161       75.2965   46.7836    5.9644 H         1 MOL     0.1442
     18 H162       76.1861   46.2165    7.3598 H         1 MOL     0.1442
@<TRIPOS>BOND
     1    2    1 ar
     2    1    7 ar
     3    1   12 ar
     4    3    2 ar
     5    2    9 ar
     6   14    3 ar
     7    4    5 1 
     8    4    6 2 
     9    4   14 1 
    10    5   15 2 
    11    6   16 1 
    12    7    8 ar
    13    8   10 ar
    14    8   11 1 
    15    9   10 ar
    16   12   13 ar
    17   13   14 ar
    18   15   16 1 
    19   17   11 1 
    20   18   11 1 
@<TRIPOS>SUBSTRUCTURE
1 MOL         1
@<TRIPOS>MOLECULE
query molecule
   18    20     1     0     0
SMALL
NO_CHARGE

@<TRIPOS>ATOM
      1 C4         73.6703   47.9832    9.7950 C.ar      1 MOL     0.0725
      2 C5         73.1703   49.2105    9.3525 C.ar      1 MOL     0.0009
      3 C6         72.4542   50.0239   10.2312 C.ar      1 MOL     0.0187
      4 C7         71.5084   50.4283   12.4478 C.2       1 MOL    -0.0112
      5 C8         72.0765   50.8476   13.6145 C.2       1 MOL     0.0163
      6 C10        70.2676   50.9115   12.2545 C.2       1 MOL     0.0538
      7 N12        74.3786   47.1945    8.9707 N.ar      1 MOL    -0.2334
      8 C13        74.6276   47.5550    7.6936 C.ar      1 MOL     0.1153
      9 C15        73.4043   49.6119    8.0371 C.ar      1 MOL     0.0138
     10 C14        74.1426   48.7713    7.1950 C.ar      1 MOL     0.0445
     11 N16        75.3198   46.7367    6.9012 N.pl3     1 MOL    -0.3432
     12 C3         73.4504   47.5821   11.1120 C.ar      1 MOL     0.0295
     13 C2         72.7273   48.3936   11.9897 C.ar      1 MOL     0.0108
     14 C1         72.2108   49.6142   11.5526 C.ar      1 MOL    -0.0171
     15 C11        71.3605   51.6433   14.4244 C.2       1 MOL     0.0459
     16 S9         69.9085   51.8665   13.6230 S.3       1 MOL    -0.1054
     17 H161       75.3286   45.7436    7.0848 H         1 MOL     0.1442
     18 H162       75.8356   47.1099    6.1171 H         1 MOL     0.1442
@<TRIPOS>BOND
     1    2    1 ar
     2    1    7 ar
     3    1   12 ar
     4    3    2 ar
     5    2    9 ar
     6   14    3 ar
     7    4    5 1 
     8    4    6 2 
     9    4   14 1 
    10    5   15 2 
    11    6   16 1 
    12    7    8 ar
    13    8   10 ar
    14    8   11 1 
    15    9   10 ar
    16   12   13 ar
    17   13   14 ar
    18   15   16 1 
    19   17   11 1 
    20   18   11 1 
@<TRIPOS>SUBSTRUCTURE
1 MOL         1
@<TRIPOS>MOLECULE
query molecule
   18    20     1     0     0
SMALL
NO_CHARGE

@<TRIPOS>ATOM
      1 C4         67.1769   49.0820    8.6037 C.ar      1 MOL     0.0725
      2 C5         68.0064   47.9692    8.7636 C.ar      1 MOL     0.0009
      3 C6         69.2259   48.1042    9.4278 C.ar      1 MOL     0.0187
      4 C7         70.8537   49.4970   10.6033 C.2       1 MOL    -0.0112
      5 C8         70.8914   49.9673   11.8828 C.2       1 MOL     0.0163
      6 C10        72.0647   49.1617   10.1221 C.2       1 MOL     0.0538
      7 N12        65.9907   48.9691    7.9845 N.ar      1 MOL    -0.2334
      8 C13        65.5625   47.7861    7.4947 C.ar      1 MOL     0.1153
      9 C15        67.5975   46.7322    8.2648 C.ar      1 MOL     0.0138
     10 C14        66.3581   46.6396    7.6199 C.ar      1 MOL     0.0445
     11 N16        64.3865   47.7183    6.8710 N.pl3     1 MOL    -0.3432
     12 C3         67.5744   50.3183    9.1108 C.ar      1 MOL     0.0295
     13 C2         68.7987   50.4548    9.7699 C.ar      1 MOL     0.0108
     14 C1         69.6409   49.3523    9.9210 C.ar      1 MOL    -0.0171
     15 C11        72.0829   50.0659   12.4929 C.2       1 MOL     0.0459
     16 S9         73.1840   49.5048   11.3644 S.3       1 MOL    -0.1054
     17 H161       63.6338   47.1758    7.2700 H         1 MOL     0.1442
     18 H162       64.2481   48.2093    5.9994 H         1 MOL     0.1442
@<TRIPOS>BOND
     1    2    1 ar
     2    1    7 ar
     3    1   12 ar
     4    3    2 ar
     5    2    9 ar
     6   14    3 ar
     7    4    5 1 
     8    4    6 2 
     9    4   14 1 
    10    5   15 2 
    11    6   16 1 
    12    7    8 ar
    13    8   10 ar
    14    8   11 1 
    15    9   10 ar
    16   12   13 ar
    17   13   14 ar
    18   15   16 1 
    19   17   11 1 
    20   18   11 1 
@<TRIPOS>SUBSTRUCTURE
1 MOL         1
@<TRIPOS>MOLECULE
query molecule
   18    20     1     0     0
SMALL
NO_CHARGE

@<TRIPOS>ATOM
      1 C4         67.3511   49.3542    8.9299 C.ar      1 MOL     0.0725
      2 C5         68.2031   48.2471    8.9476 C.ar      1 MOL     0.0009
      3 C6         69.4249   48.3240    9.6168 C.ar      1 MOL     0.0187
      4 C7         71.0349   49.5947   10.9453 C.2       1 MOL    -0.0112
      5 C8         71.0690   49.7580   12.2988 C.2       1 MOL     0.0163
      6 C10        72.2555   49.4825   10.3904 C.2       1 MOL     0.0538
      7 N12        66.1625   49.2943    8.3080 N.ar      1 MOL    -0.2334
      8 C13        65.7532   48.1719    7.6792 C.ar      1 MOL     0.1153
      9 C15        67.8141   47.0725    8.3032 C.ar      1 MOL     0.0138
     10 C14        66.5716   47.0348    7.6585 C.ar      1 MOL     0.0445
     11 N16        64.5739   48.1574    7.0583 N.pl3     1 MOL    -0.3432
     12 C3         67.7288   50.5268    9.5827 C.ar      1 MOL     0.0295
     13 C2         68.9553   50.6061   10.2468 C.ar      1 MOL     0.0108
     14 C1         69.8198   49.5104   10.2570 C.ar      1 MOL    -0.0171
     15 C11        72.2646   49.8125   12.9063 C.2       1 MOL     0.0459
     16 S9         73.3765   49.6219   11.6702 S.3       1 MOL    -0.1054
     17 H161       63.7347   48.4062    7.5623 H         1 MOL     0.1442
     18 H162       64.5194   47.8977    6.0838 H         1 MOL     0.1442
@<TRIPOS>BOND
     1    2    1 ar
     2    1    7 ar
     3    1   12 ar
     4    3    2 ar
     5    2    9 ar
     6   14    3 ar
     7    4    5 1 
     8    4    6 2 
     9    4   14 1 
    10    5   15 2 
    11    6   16 1 
    12    7    8 ar
    13    8   10 ar
    14    8   11 1 
    15    9   10 ar
    16   12   13 ar
    17   13   14 ar
    18   15   16 1 
    19   17   11 1 
    20   18   11 1 
@<TRIPOS>SUBSTRUCTURE
1 MOL         1
@<TRIPOS>MOLECULE
query molecule
   18    20     1     0     0
SMALL
NO_CHARGE

@<TRIPOS>ATOM
      1 C4         67.5094   49.3640    8.8440 C.ar      1 MOL     0.0725
      2 C5         68.3371   48.2514    9.0146 C.ar      1 MOL     0.0009
      3 C6         69.4835   48.3555    9.8029 C.ar      1 MOL     0.0187
      4 C7         70.9662   49.6860   11.2181 C.2       1 MOL    -0.0112
      5 C8         72.1612   49.1562   10.8294 C.2       1 MOL     0.0163
      6 C10        71.0288   50.3389   12.3930 C.2       1 MOL     0.0538
      7 N12        66.3913   49.2794    8.1051 N.ar      1 MOL    -0.2334
      8 C13        66.0320   48.1260    7.5022 C.ar      1 MOL     0.1153
      9 C15        67.9988   47.0449    8.4013 C.ar      1 MOL     0.0138
     10 C14        66.8299   46.9817    7.6329 C.ar      1 MOL     0.0445
     11 N16        64.9238   48.0867    6.7627 N.pl3     1 MOL    -0.3432
     12 C3         67.8356   50.5691    9.4644 C.ar      1 MOL     0.0295
     13 C2         68.9873   50.6751   10.2481 C.ar      1 MOL     0.0108
     14 C1         69.8283   49.5734   10.4119 C.ar      1 MOL    -0.0171
     15 C11        73.2226   49.3129   11.6360 C.2       1 MOL     0.0459
     16 S9         72.6427   50.1998   12.9313 S.3       1 MOL    -0.1054
     17 H161       64.1445   47.5125    7.0508 H         1 MOL     0.1442
     18 H162       64.8634   48.6312    5.9142 H         1 MOL     0.1442
@<TRIPOS>BOND
     1    2    1 ar
     2    1    7 ar
     3    1   12 ar
     4    3    2 ar
     5    2    9 ar
     6   14    3 ar
     7    4    5 1 
     8    4    6 2 
     9    4   14 1 
    10    5   15 2 
    11    6   16 1 
    12    7    8 ar
    13    8   10 ar
    14    8   11 1 
    15    9   10 ar
    16   12   13 ar
    17   13   14 ar
    18   15   16 1 
    19   17   11 1 
    20   18   11 1 
@<TRIPOS>SUBSTRUCTURE
1 MOL         1
@<TRIPOS>MOLECULE
query molecule
   18    20     1     0     0
SMALL
NO_CHARGE

@<TRIPOS>ATOM
      1 C4         70.6590   49.9617   10.8936 C.ar      1 MOL     0.0725
      2 C5         69.7446   50.0467    9.8407 C.ar      1 MOL     0.0009
      3 C6         68.9187   51.1656    9.7293 C.ar      1 MOL     0.0187
      4 C7         68.1692   53.3356   10.5664 C.2       1 MOL    -0.0112
      5 C8         66.9048   53.3511   11.0772 C.2       1 MOL     0.0163
      6 C10        68.5358   54.5064   10.0138 C.2       1 MOL     0.0538
      7 N12        71.4762   48.9022   11.0076 N.ar      1 MOL    -0.2334
      8 C13        71.4408   47.8875   10.1178 C.ar      1 MOL     0.1153
      9 C15        69.6775   49.0133    8.9059 C.ar      1 MOL     0.0138
     10 C14        70.5373   47.9171    9.0474 C.ar      1 MOL     0.0445
     11 N16        72.2562   46.8449   10.2750 N.pl3     1 MOL    -0.3432
     12 C3         70.7393   50.9970   11.8239 C.ar      1 MOL     0.0295
     13 C2         69.9075   52.1142   11.7162 C.ar      1 MOL     0.0108
     14 C1         68.9803   52.2010   10.6766 C.ar      1 MOL    -0.0171
     15 C11        66.1809   54.4752   10.9583 C.2       1 MOL     0.0459
     16 S9         67.1950   55.5507   10.1738 S.3       1 MOL    -0.1054
     17 H161       72.4696   46.5059   11.2022 H         1 MOL     0.1442
     18 H162       72.6606   46.3938    9.4669 H         1 MOL     0.1442
@<TRIPOS>BOND
     1    2    1 ar
     2    1    7 ar
     3    1   12 ar
     4    3    2 ar
     5    2    9 ar
     6   14    3 ar
     7    4    5 1 
     8    4    6 2 
     9    4   14 1 
    10    5   15 2 
    11    6   16 1 
    12    7    8 ar
    13    8   10 ar
    14    8   11 1 
    15    9   10 ar
    16   12   13 ar
    17   13   14 ar
    18   15   16 1 
    19   17   11 1 
    20   18   11 1 
@<TRIPOS>SUBSTRUCTURE
1 MOL         1
@<TRIPOS>MOLECULE
query molecule
   18    20     1     0     0
SMALL
NO_CHARGE

@<TRIPOS>ATOM
      1 C4         70.0131   50.1996   10.9314 C.ar      1 MOL     0.0725
      2 C5         69.2006   50.4007    9.8127 C.ar      1 MOL     0.0009
      3 C6         68.4427   51.5673    9.7078 C.ar      1 MOL     0.0187
      4 C7         67.7274   53.7169   10.6239 C.2       1 MOL    -0.0112
      5 C8         68.3266   54.9023   10.3153 C.2       1 MOL     0.0163
      6 C10        66.3927   53.8142   10.7642 C.2       1 MOL     0.0538
      7 N12        70.7650   49.0926   11.0422 N.ar      1 MOL    -0.2334
      8 C13        70.7598   48.1399   10.0855 C.ar      1 MOL     0.1153
      9 C15        69.1669   49.4340    8.8074 C.ar      1 MOL     0.0138
     10 C14        69.9570   48.2863    8.9466 C.ar      1 MOL     0.0445
     11 N16        71.5069   47.0470   10.2402 N.pl3     1 MOL    -0.3432
     12 C3         70.0605   51.1678   11.9335 C.ar      1 MOL     0.0295
     13 C2         69.2962   52.3328   11.8317 C.ar      1 MOL     0.0108
     14 C1         68.4700   52.5355   10.7252 C.ar      1 MOL    -0.0171
     15 C11        67.5594   55.9990   10.2128 C.2       1 MOL     0.0459
     16 S9         66.0040   55.4564   10.5078 S.3       1 MOL    -0.1054
     17 H161       71.6208   46.6387   11.1570 H         1 MOL     0.1442
     18 H162       71.9591   46.6271    9.4407 H         1 MOL     0.1442
@<TRIPOS>BOND
     1    2    1 ar
     2    1    7 ar
     3    1   12 ar
     4    3    2 ar
     5    2    9 ar
     6   14    3 ar
     7    4    5 1 
     8    4    6 2 
     9    4   14 1 
    10    5   15 2 
    11    6   16 1 
    12    7    8 ar
    13    8   10 ar
    14    8   11 1 
    15    9   10 ar
    16   12   13 ar
    17   13   14 ar
    18   15   16 1 
    19   17   11 1 
    20   18   11 1 
@<TRIPOS>SUBSTRUCTURE
1 MOL         1
@<TRIPOS>MOLECULE
query molecule
   18    20     1     0     0
SMALL
NO_CHARGE

@<TRIPOS>ATOM
      1 C4         70.2817   50.0287   11.1284 C.ar      1 MOL     0.0725
      2 C5         69.5703   50.3350    9.9657 C.ar      1 MOL     0.0009
      3 C6         68.9195   51.5642    9.8555 C.ar      1 MOL     0.0187
      4 C7         68.3186   53.7342   10.8048 C.2       1 MOL    -0.0112
      5 C8         68.6189   54.5962    9.7917 C.2       1 MOL     0.0163
      6 C10        67.3496   54.1872   11.6212 C.2       1 MOL     0.0538
      7 N12        70.9309   48.8592   11.2465 N.ar      1 MOL    -0.2334
      8 C13        70.9162   47.9431   10.2548 C.ar      1 MOL     0.1153
      9 C15        69.5296   49.4090    8.9230 C.ar      1 MOL     0.0138
     10 C14        70.2114   48.1948    9.0703 C.ar      1 MOL     0.0445
     11 N16        71.5586   46.7865   10.4169 N.pl3     1 MOL    -0.3432
     12 C3         70.3364   50.9551   12.1689 C.ar      1 MOL     0.0295
     13 C2         69.6790   52.1831   12.0612 C.ar      1 MOL     0.0108
     14 C1         68.9531   52.4918   10.9098 C.ar      1 MOL    -0.0171
     15 C11        67.9631   55.7659    9.7318 C.2       1 MOL     0.0459
     16 S9         66.9060   55.7253   11.0285 S.3       1 MOL    -0.1054
     17 H161       71.5731   46.3394   11.3224 H         1 MOL     0.1442
     18 H162       72.0309   46.3573    9.6341 H         1 MOL     0.1442
@<TRIPOS>BOND
     1    2    1 ar
     2    1    7 ar
     3    1   12 ar
     4    3    2 ar
     5    2    9 ar
     6   14    3 ar
     7    4    5 1 
     8    4    6 2 
     9    4   14 1 
    10    5   15 2 
    11    6   16 1 
    12    7    8 ar
    13    8   10 ar
    14    8   11 1 
    15    9   10 ar
    16   12   13 ar
    17   13   14 ar
    18   15   16 1 
    19   17   11 1 
    20   18   11 1 
@<TRIPOS>SUBSTRUCTURE
1 MOL         1
@<TRIPOS>MOLECULE
query molecule
   18    20     1     0     0
SMALL
NO_CHARGE

@<TRIPOS>ATOM
      1 C4         68.6024   48.9830    7.1715 C.ar      1 MOL     0.0725
      2 C5         68.9379   48.1155    8.2140 C.ar      1 MOL     0.0009
      3 C6         70.2536   48.0630    8.6750 C.ar      1 MOL     0.0187
      4 C7         72.5717   48.8265    8.5533 C.2       1 MOL    -0.0112
      5 C8         73.6209   48.7115    7.6897 C.2       1 MOL     0.0163
      6 C10        72.9497   48.9479    9.8390 C.2       1 MOL     0.0538
      7 N12        67.3380   49.0626    6.7263 N.ar      1 MOL    -0.2334
      8 C13        66.3542   48.3101    7.2636 C.ar      1 MOL     0.1153
      9 C15        67.9471   47.3192    8.7888 C.ar      1 MOL     0.0138
     10 C14        66.6364   47.4170    8.3056 C.ar      1 MOL     0.0445
     11 N16        65.1148   48.4051    6.7825 N.pl3     1 MOL    -0.3432
     12 C3         69.5856   49.7903    6.6013 C.ar      1 MOL     0.0295
     13 C2         70.9046   49.7326    7.0583 C.ar      1 MOL     0.0108
     14 C1         71.2524   48.8580    8.0889 C.ar      1 MOL    -0.0171
     15 C11        74.8654   48.7064    8.1927 C.2       1 MOL     0.0459
     16 S9         74.6553   48.8798    9.8438 S.3       1 MOL    -0.1054
     17 H161       64.5738   47.5694    6.6123 H         1 MOL     0.1442
     18 H162       64.7168   49.3127    6.5881 H         1 MOL     0.1442
@<TRIPOS>BOND
     1    2    1 ar
     2    1    7 ar
     3    1   12 ar
     4    3    2 ar
     5    2    9 ar
     6   14    3 ar
     7    4    5 1 
     8    4    6 2 
     9    4   14 1 
    10    5   15 2 
    11    6   16 1 
    12    7    8 ar
    13    8   10 ar
    14    8   11 1 
    15    9   10 ar
    16   12   13 ar
    17   13   14 ar
    18   15   16 1 
    19   17   11 1 
    20   18   11 1 
@<TRIPOS>SUBSTRUCTURE
1 MOL         1
@<TRIPOS>MOLECULE
query molecule
   18    20     1     0     0
SMALL
NO_CHARGE

@<TRIPOS>ATOM
      1 C4         68.9821   48.8177    7.0087 C.ar      1 MOL     0.0725
      2 C5         69.2632   47.9907    8.0991 C.ar      1 MOL     0.0009
      3 C6         70.5733   47.8821    8.5665 C.ar      1 MOL     0.0187
      4 C7         72.9345   48.4917    8.4096 C.2       1 MOL    -0.0112
      5 C8         73.9573   49.1219    7.7643 C.2       1 MOL     0.0163
      6 C10        73.3235   47.8476    9.5251 C.2       1 MOL     0.0538
      7 N12        67.7250   48.9509    6.5558 N.ar      1 MOL    -0.2334
      8 C13        66.6964   48.2925    7.1312 C.ar      1 MOL     0.1153
      9 C15        68.2248   47.2911    8.7145 C.ar      1 MOL     0.0138
     10 C14        66.9226   47.4433    8.2225 C.ar      1 MOL     0.0445
     11 N16        65.4652   48.4374    6.6417 N.pl3     1 MOL    -0.3432
     12 C3         70.0136   49.5289    6.3973 C.ar      1 MOL     0.0295
     13 C2         71.3265   49.4148    6.8611 C.ar      1 MOL     0.0108
     14 C1         71.6195   48.5793    7.9400 C.ar      1 MOL    -0.0171
     15 C11        75.1950   49.0176    8.2732 C.2       1 MOL     0.0459
     16 S9         75.0094   48.0846    9.6500 S.3       1 MOL    -0.1054
     17 H161       64.8729   47.6289    6.5168 H         1 MOL     0.1442
     18 H162       65.1245   49.3558    6.3956 H         1 MOL     0.1442
@<TRIPOS>BOND
     1    2    1 ar
     2    1    7 ar
     3    1   12 ar
     4    3    2 ar
     5    2    9 ar
     6   14    3 ar
     7    4    5 1 
     8    4    6 2 
     9    4   14 1 
    10    5   15 2 
    11    6   16 1 
    12    7    8 ar
    13    8   10 ar
    14    8   11 1 
    15    9   10 ar
    16   12   13 ar
    17   13   14 ar
    18   15   16 1 
    19   17   11 1 
    20   18   11 1 
@<TRIPOS>SUBSTRUCTURE
1 MOL         1
@<TRIPOS>MOLECULE
query molecule
   18    20     1     0     0
SMALL
NO_CHARGE

@<TRIPOS>ATOM
      1 C4         68.9821   48.8314    7.0155 C.ar      1 MOL     0.0725
      2 C5         69.2198   48.0057    8.1172 C.ar      1 MOL     0.0009
      3 C6         70.5141   47.8809    8.6228 C.ar      1 MOL     0.0187
      4 C7         72.8873   48.4563    8.5317 C.2       1 MOL    -0.0112
      5 C8         73.1598   48.7442    9.8365 C.2       1 MOL     0.0163
      6 C10        73.9632   48.0349    7.8422 C.2       1 MOL     0.0538
      7 N12        67.7407   48.9803    6.5258 N.ar      1 MOL    -0.2334
      8 C13        66.6866   48.3391    7.0741 C.ar      1 MOL     0.1153
      9 C15        68.1542   47.3238    8.7053 C.ar      1 MOL     0.0138
     10 C14        66.8691   47.4920    8.1751 C.ar      1 MOL     0.0445
     11 N16        65.4722   48.4991    6.5484 N.pl3     1 MOL    -0.3432
     12 C3         70.0409   49.5251    6.4312 C.ar      1 MOL     0.0295
     13 C2         71.3381   49.3947    6.9332 C.ar      1 MOL     0.0108
     14 C1         71.5878   48.5603    8.0238 C.ar      1 MOL    -0.0171
     15 C11        74.4223   48.6072   10.2713 C.2       1 MOL     0.0459
     16 S9         75.2730   48.0638    8.9365 S.3       1 MOL    -0.1054
     17 H161       64.8723   47.6985    6.4099 H         1 MOL     0.1442
     18 H162       65.1519   49.4211    6.2886 H         1 MOL     0.1442
@<TRIPOS>BOND
     1    2    1 ar
     2    1    7 ar
     3    1   12 ar
     4    3    2 ar
     5    2    9 ar
     6   14    3 ar
     7    4    5 1 
     8    4    6 2 
     9    4   14 1 
    10    5   15 2 
    11    6   16 1 
    12    7    8 ar
    13    8   10 ar
    14    8   11 1 
    15    9   10 ar
    16   12   13 ar
    17   13   14 ar
    18   15   16 1 
    19   17   11 1 
    20   18   11 1 
@<TRIPOS>SUBSTRUCTURE
1 MOL         1
@<TRIPOS>MOLECULE
query molecule
   18    20     1     0     0
SMALL
NO_CHARGE

@<TRIPOS>ATOM
      1 C4         78.4491   42.4755   14.2497 C.ar      1 MOL     0.0725
      2 C5         77.1088   42.7754   13.9937 C.ar      1 MOL     0.0009
      3 C6         76.7806   43.6516   12.9588 C.ar      1 MOL     0.0187
      4 C7         77.4672   45.1213   11.1312 C.2       1 MOL    -0.0112
      5 C8         76.6141   44.7424   10.1371 C.2       1 MOL     0.0163
      6 C10        77.9053   46.3873   11.0048 C.2       1 MOL     0.0538
      7 N12        78.7850   41.6197   15.2285 N.ar      1 MOL    -0.2334
      8 C13        77.8467   41.0262   15.9967 C.ar      1 MOL     0.1153
      9 C15        76.1133   42.1840   14.7719 C.ar      1 MOL     0.0138
     10 C14        76.4879   41.2975   15.7891 C.ar      1 MOL     0.0445
     11 N16        78.2209   40.1958   16.9699 N.pl3     1 MOL    -0.3432
     12 C3         79.4479   43.0537   13.4675 C.ar      1 MOL     0.0295
     13 C2         79.1195   43.9365   12.4357 C.ar      1 MOL     0.0108
     14 C1         77.7843   44.2540   12.1823 C.ar      1 MOL    -0.0171
     15 C11        76.3325   45.6247    9.1655 C.2       1 MOL     0.0459
     16 S9         77.1936   46.9988    9.5788 S.3       1 MOL    -0.1054
     17 H161       79.1956   40.1223   17.2241 H         1 MOL     0.1442
     18 H162       77.5297   39.6401   17.4531 H         1 MOL     0.1442
@<TRIPOS>BOND
     1    2    1 ar
     2    1    7 ar
     3    1   12 ar
     4    3    2 ar
     5    2    9 ar
     6   14    3 ar
     7    4    5 1 
     8    4    6 2 
     9    4   14 1 
    10    5   15 2 
    11    6   16 1 
    12    7    8 ar
    13    8   10 ar
    14    8   11 1 
    15    9   10 ar
    16   12   13 ar
    17   13   14 ar
    18   15   16 1 
    19   17   11 1 
    20   18   11 1 
@<TRIPOS>SUBSTRUCTURE
1 MOL         1
@<TRIPOS>MOLECULE
query molecule
   18    20     1     0     0
SMALL
NO_CHARGE

@<TRIPOS>ATOM
      1 C4         78.4456   42.4394   14.2640 C.ar      1 MOL     0.0725
      2 C5         77.1087   42.7347   13.9858 C.ar      1 MOL     0.0009
      3 C6         76.7961   43.6426   12.9735 C.ar      1 MOL     0.0187
      4 C7         77.5106   45.1806   11.2142 C.2       1 MOL    -0.0112
      5 C8         77.6948   46.5223   11.3743 C.2       1 MOL     0.0163
      6 C10        77.0707   44.8450    9.9876 C.2       1 MOL     0.0538
      7 N12        78.7670   41.5540   15.2211 N.ar      1 MOL    -0.2334
      8 C13        77.8169   40.9253   15.9456 C.ar      1 MOL     0.1153
      9 C15        76.1012   42.1073   14.7189 C.ar      1 MOL     0.0138
     10 C14        76.4607   41.1902   15.7143 C.ar      1 MOL     0.0445
     11 N16        78.1765   40.0659   16.8989 N.pl3     1 MOL    -0.3432
     12 C3         79.4566   43.0539   13.5264 C.ar      1 MOL     0.0295
     13 C2         79.1437   43.9682   12.5175 C.ar      1 MOL     0.0108
     14 C1         77.8116   44.2810   12.2426 C.ar      1 MOL    -0.0171
     15 C11        77.4067   47.3345   10.3452 C.2       1 MOL     0.0459
     16 S9         76.9008   46.3078    9.1244 S.3       1 MOL    -0.1054
     17 H161       79.1550   39.9010   17.0873 H         1 MOL     0.1442
     18 H162       77.4705   39.5796   17.4327 H         1 MOL     0.1442
@<TRIPOS>BOND
     1    2    1 ar
     2    1    7 ar
     3    1   12 ar
     4    3    2 ar
     5    2    9 ar
     6   14    3 ar
     7    4    5 1 
     8    4    6 2 
     9    4   14 1 
    10    5   15 2 
    11    6   16 1 
    12    7    8 ar
    13    8   10 ar
    14    8   11 1 
    15    9   10 ar
    16   12   13 ar
    17   13   14 ar
    18   15   16 1 
    19   17   11 1 
    20   18   11 1 
@<TRIPOS>SUBSTRUCTURE
1 MOL         1
@<TRIPOS>MOLECULE
query molecule
   18    20     1     0     0
SMALL
NO_CHARGE

@<TRIPOS>ATOM
      1 C4         78.7409   42.8057   14.2503 C.ar      1 MOL     0.0725
      2 C5         77.3876   43.0018   13.9639 C.ar      1 MOL     0.0009
      3 C6         77.0166   43.8404   12.9124 C.ar      1 MOL     0.0187
      4 C7         77.6295   45.3386   11.0818 C.2       1 MOL    -0.0112
      5 C8         77.8821   46.6783   11.1145 C.2       1 MOL     0.0163
      6 C10        77.0637   44.9302    9.9313 C.2       1 MOL     0.0538
      7 N12        79.1193   41.9876   15.2456 N.ar      1 MOL    -0.2334
      8 C13        78.2121   41.3333   16.0017 C.ar      1 MOL     0.1153
      9 C15        76.4231   42.3454   14.7288 C.ar      1 MOL     0.0138
     10 C14        76.8415   41.4999   15.7637 C.ar      1 MOL     0.0445
     11 N16        78.6269   40.5433   16.9919 N.pl3     1 MOL    -0.3432
     12 C3         79.7098   43.4492   13.4815 C.ar      1 MOL     0.0295
     13 C2         79.3380   44.2943   12.4330 C.ar      1 MOL     0.0108
     14 C1         77.9884   44.5083   12.1491 C.ar      1 MOL    -0.0171
     15 C11        77.5324   47.4210   10.0525 C.2       1 MOL     0.0459
     16 S9         76.8735   46.3279    8.9701 S.3       1 MOL    -0.1054
     17 H161       78.2653   40.6722   17.9261 H         1 MOL     0.1442
     18 H162       79.3029   39.8158   16.8080 H         1 MOL     0.1442
@<TRIPOS>BOND
     1    2    1 ar
     2    1    7 ar
     3    1   12 ar
     4    3    2 ar
     5    2    9 ar
     6   14    3 ar
     7    4    5 1 
     8    4    6 2 
     9    4   14 1 
    10    5   15 2 
    11    6   16 1 
    12    7    8 ar
    13    8   10 ar
    14    8   11 1 
    15    9   10 ar
    16   12   13 ar
    17   13   14 ar
    18   15   16 1 
    19   17   11 1 
    20   18   11 1 
@<TRIPOS>SUBSTRUCTURE
1 MOL         1
@<TRIPOS>MOLECULE
query molecule
   18    20     1     0     0
SMALL
NO_CHARGE

@<TRIPOS>ATOM
      1 C4         67.4197   49.8799    9.5656 C.ar      1 MOL     0.0725
      2 C5         68.0247   50.3974   10.7136 C.ar      1 MOL     0.0009
      3 C6         69.3755   50.1474   10.9573 C.ar      1 MOL     0.0187
      4 C7         71.4910   49.1183   10.2963 C.2       1 MOL    -0.0112
      5 C8         72.4387   49.5362    9.4092 C.2       1 MOL     0.0163
      6 C10        72.0063   48.5148   11.3829 C.2       1 MOL     0.0538
      7 N12        66.1258   50.1253    9.3029 N.ar      1 MOL    -0.2334
      8 C13        65.3684   50.8719   10.1345 C.ar      1 MOL     0.1153
      9 C15        67.2701   51.1689   11.5977 C.ar      1 MOL     0.0138
     10 C14        65.9219   51.4085   11.3045 C.ar      1 MOL     0.0445
     11 N16        64.0832   51.0786    9.8478 N.pl3     1 MOL    -0.3432
     12 C3         68.1717   49.1185    8.6720 C.ar      1 MOL     0.0295
     13 C2         69.5226   48.8624    8.9196 C.ar      1 MOL     0.0108
     14 C1         70.1318   49.3623   10.0715 C.ar      1 MOL    -0.0171
     15 C11        73.7284   49.2904    9.6885 C.2       1 MOL     0.0459
     16 S9         73.6997   48.5083   11.1677 S.3       1 MOL    -0.1054
     17 H161       63.8264   51.5579    8.9968 H         1 MOL     0.1442
     18 H162       63.3662   50.7558   10.4817 H         1 MOL     0.1442
@<TRIPOS>BOND
     1    2    1 ar
     2    1    7 ar
     3    1   12 ar
     4    3    2 ar
     5    2    9 ar
     6   14    3 ar
     7    4    5 1 
     8    4    6 2 
     9    4   14 1 
    10    5   15 2 
    11    6   16 1 
    12    7    8 ar
    13    8   10 ar
    14    8   11 1 
    15    9   10 ar
    16   12   13 ar
    17   13   14 ar
    18   15   16 1 
    19   17   11 1 
    20   18   11 1 
@<TRIPOS>SUBSTRUCTURE
1 MOL         1
@<TRIPOS>MOLECULE
query molecule
   18    20     1     0     0
SMALL
NO_CHARGE

@<TRIPOS>ATOM
      1 C4         67.4197   49.8800    9.5656 C.ar      1 MOL     0.0725
      2 C5         68.0245   50.3976   10.7137 C.ar      1 MOL     0.0009
      3 C6         69.3753   50.1478   10.9576 C.ar      1 MOL     0.0187
      4 C7         71.4911   49.1191   10.2968 C.2       1 MOL    -0.0112
      5 C8         71.9147   48.4668   11.4170 C.2       1 MOL     0.0163
      6 C10        72.4911   49.4395    9.4555 C.2       1 MOL     0.0538
      7 N12        66.1258   50.1251    9.3028 N.ar      1 MOL    -0.2334
      8 C13        65.3682   50.8716   10.1343 C.ar      1 MOL     0.1153
      9 C15        67.2696   51.1690   11.5977 C.ar      1 MOL     0.0138
     10 C14        65.9215   51.4083   11.3043 C.ar      1 MOL     0.0445
     11 N16        64.0830   51.0780    9.8475 N.pl3     1 MOL    -0.3432
     12 C3         68.1719   49.1187    8.6721 C.ar      1 MOL     0.0295
     13 C2         69.5228   48.8628    8.9199 C.ar      1 MOL     0.0108
     14 C1         70.1319   49.3628   10.0718 C.ar      1 MOL    -0.0171
     15 C11        73.2297   48.2446   11.5685 C.2       1 MOL     0.0459
     16 S9         73.9295   48.8896   10.1920 S.3       1 MOL    -0.1054
     17 H161       63.8261   51.5573    8.9963 H         1 MOL     0.1442
     18 H162       63.3660   50.7552   10.4813 H         1 MOL     0.1442
@<TRIPOS>BOND
     1    2    1 ar
     2    1    7 ar
     3    1   12 ar
     4    3    2 ar
     5    2    9 ar
     6   14    3 ar
     7    4    5 1 
     8    4    6 2 
     9    4   14 1 
    10    5   15 2 
    11    6   16 1 
    12    7    8 ar
    13    8   10 ar
    14    8   11 1 
    15    9   10 ar
    16   12   13 ar
    17   13   14 ar
    18   15   16 1 
    19   17   11 1 
    20   18   11 1 
@<TRIPOS>SUBSTRUCTURE
1 MOL         1
@<TRIPOS>MOLECULE
query molecule
   18    20     1     0     0
SMALL
NO_CHARGE

@<TRIPOS>ATOM
      1 C4         67.4381   49.8738    9.5682 C.ar      1 MOL     0.0725
      2 C5         68.0268   50.3961   10.7225 C.ar      1 MOL     0.0009
      3 C6         69.3761   50.1543   10.9820 C.ar      1 MOL     0.0187
      4 C7         71.5052   49.1371   10.3465 C.2       1 MOL    -0.0112
      5 C8         71.9223   48.5209   11.4893 C.2       1 MOL     0.0163
      6 C10        72.5101   49.4313    9.5015 C.2       1 MOL     0.0538
      7 N12        66.1459   50.1112    9.2903 N.ar      1 MOL    -0.2334
      8 C13        65.3746   50.8543   10.1123 C.ar      1 MOL     0.1153
      9 C15        67.2575   51.1641   11.5970 C.ar      1 MOL     0.0138
     10 C14        65.9114   51.3954   11.2879 C.ar      1 MOL     0.0445
     11 N16        64.0916   51.0530    9.8106 N.pl3     1 MOL    -0.3432
     12 C3         68.2048   49.1160    8.6841 C.ar      1 MOL     0.0295
     13 C2         69.5542   48.8680    8.9476 C.ar      1 MOL     0.0108
     14 C1         70.1472   49.3728   10.1058 C.ar      1 MOL    -0.0171
     15 C11        73.2365   48.3043   11.6557 C.2       1 MOL     0.0459
     16 S9         73.9443   48.9059   10.2637 S.3       1 MOL    -0.1054
     17 H161       63.6772   51.9647    9.9419 H         1 MOL     0.1442
     18 H162       63.5337   50.2919    9.4507 H         1 MOL     0.1442
@<TRIPOS>BOND
     1    2    1 ar
     2    1    7 ar
     3    1   12 ar
     4    3    2 ar
     5    2    9 ar
     6   14    3 ar
     7    4    5 1 
     8    4    6 2 
     9    4   14 1 
    10    5   15 2 
    11    6   16 1 
    12    7    8 ar
    13    8   10 ar
    14    8   11 1 
    15    9   10 ar
    16   12   13 ar
    17   13   14 ar
    18   15   16 1 
    19   17   11 1 
    20   18   11 1 
@<TRIPOS>SUBSTRUCTURE
1 MOL         1
@<TRIPOS>MOLECULE
query molecule
   18    20     1     0     0
SMALL
NO_CHARGE

@<TRIPOS>ATOM
      1 C4         67.8558   53.1620   11.8147 C.ar      1 MOL     0.0725
      2 C5         68.9345   53.2684   10.9332 C.ar      1 MOL     0.0009
      3 C6         70.0346   52.4229   11.0795 C.ar      1 MOL     0.0187
      4 C7         71.1708   50.6127   12.2643 C.2       1 MOL    -0.0112
      5 C8         71.7672   50.4295   13.4769 C.2       1 MOL     0.0163
      6 C10        71.7059   49.8583   11.2870 C.2       1 MOL     0.0538
      7 N12        66.7794   53.9532   11.6791 N.ar      1 MOL    -0.2334
      8 C13        66.7034   54.8754   10.6960 C.ar      1 MOL     0.1153
      9 C15        68.8918   54.2144    9.9088 C.ar      1 MOL     0.0138
     10 C14        67.7602   55.0307    9.7893 C.ar      1 MOL     0.0445
     11 N16        65.6253   55.6539   10.6050 N.pl3     1 MOL    -0.3432
     12 C3         67.8873   52.2101   12.8329 C.ar      1 MOL     0.0295
     13 C2         68.9919   51.3681   12.9836 C.ar      1 MOL     0.0108
     14 C1         70.0808   51.4774   12.1173 C.ar      1 MOL    -0.0171
     15 C11        72.7968   49.5723   13.5600 C.2       1 MOL     0.0459
     16 S9         72.9741   48.9720   12.0080 S.3       1 MOL    -0.1054
     17 H161       64.8810   55.5670   11.2821 H         1 MOL     0.1442
     18 H162       65.5528   56.3307    9.8588 H         1 MOL     0.1442
@<TRIPOS>BOND
     1    2    1 ar
     2    1    7 ar
     3    1   12 ar
     4    3    2 ar
     5    2    9 ar
     6   14    3 ar
     7    4    5 1 
     8    4    6 2 
     9    4   14 1 
    10    5   15 2 
    11    6   16 1 
    12    7    8 ar
    13    8   10 ar
    14    8   11 1 
    15    9   10 ar
    16   12   13 ar
    17   13   14 ar
    18   15   16 1 
    19   17   11 1 
    20   18   11 1 
@<TRIPOS>SUBSTRUCTURE
1 MOL         1
@<TRIPOS>MOLECULE
query molecule
   18    20     1     0     0
SMALL
NO_CHARGE

@<TRIPOS>ATOM
      1 C4         67.9436   53.1388   11.8158 C.ar      1 MOL     0.0725
      2 C5         69.1101   53.2715   11.0585 C.ar      1 MOL     0.0009
      3 C6         70.2114   52.4607   11.3351 C.ar      1 MOL     0.0187
      4 C7         71.2612   50.6947   12.6582 C.2       1 MOL    -0.0112
      5 C8         71.5318   49.6044   11.8851 C.2       1 MOL     0.0163
      6 C10        72.1593   50.8880   13.6412 C.2       1 MOL     0.0538
      7 N12        66.8662   53.8960   11.5530 N.ar      1 MOL    -0.2334
      8 C13        66.8731   54.8082   10.5576 C.ar      1 MOL     0.1153
      9 C15        69.1540   54.2081   10.0255 C.ar      1 MOL     0.0138
     10 C14        68.0194   54.9887    9.7723 C.ar      1 MOL     0.0445
     11 N16        65.7896   55.5529   10.3391 N.pl3     1 MOL    -0.3432
     12 C3         67.8894   52.1959   12.8413 C.ar      1 MOL     0.0295
     13 C2         68.9945   51.3890   13.1228 C.ar      1 MOL     0.0108
     14 C1         70.1694   51.5248   12.3817 C.ar      1 MOL    -0.0171
     15 C11        72.6045   48.8564   12.1876 C.2       1 MOL     0.0459
     16 S9         73.2914   49.6171   13.5105 S.3       1 MOL    -0.1054
     17 H161       64.9773   55.4485   10.9302 H         1 MOL     0.1442
     18 H162       65.7807   56.2217    9.5823 H         1 MOL     0.1442
@<TRIPOS>BOND
     1    2    1 ar
     2    1    7 ar
     3    1   12 ar
     4    3    2 ar
     5    2    9 ar
     6   14    3 ar
     7    4    5 1 
     8    4    6 2 
     9    4   14 1 
    10    5   15 2 
    11    6   16 1 
    12    7    8 ar
    13    8   10 ar
    14    8   11 1 
    15    9   10 ar
    16   12   13 ar
    17   13   14 ar
    18   15   16 1 
    19   17   11 1 
    20   18   11 1 
@<TRIPOS>SUBSTRUCTURE
1 MOL         1
@<TRIPOS>MOLECULE
query molecule
   18    20     1     0     0
SMALL
NO_CHARGE

@<TRIPOS>ATOM
      1 C4         67.6644   53.2764   11.7518 C.ar      1 MOL     0.0725
      2 C5         68.8074   53.4095   10.9595 C.ar      1 MOL     0.0009
      3 C6         69.8687   52.5180   11.1194 C.ar      1 MOL     0.0187
      4 C7         70.8617   50.5881   12.2423 C.2       1 MOL    -0.0112
      5 C8         70.9914   49.5101   11.4172 C.2       1 MOL     0.0163
      6 C10        71.8490   50.6864   13.1512 C.2       1 MOL     0.0538
      7 N12        66.6244   54.1121   11.6001 N.ar      1 MOL    -0.2334
      8 C13        66.6476   55.1056   10.6862 C.ar      1 MOL     0.1153
      9 C15        68.8675   54.4286   10.0086 C.ar      1 MOL     0.0138
     10 C14        67.7721   55.2899    9.8709 C.ar      1 MOL     0.0445
     11 N16        65.6023   55.9255   10.5778 N.pl3     1 MOL    -0.3432
     12 C3         67.5934   52.2524   12.6952 C.ar      1 MOL     0.0295
     13 C2         68.6590   51.3640   12.8601 C.ar      1 MOL     0.0108
     14 C1         69.8110   51.4984   12.0839 C.ar      1 MOL    -0.0171
     15 C11        72.0310   48.6822   11.6057 C.2       1 MOL     0.0459
     16 S9         72.8756   49.3483   12.8877 S.3       1 MOL    -0.1054
     17 H161       65.2399   56.1638    9.6657 H         1 MOL     0.1442
     18 H162       65.1726   56.3083   11.4077 H         1 MOL     0.1442
@<TRIPOS>BOND
     1    2    1 ar
     2    1    7 ar
     3    1   12 ar
     4    3    2 ar
     5    2    9 ar
     6   14    3 ar
     7    4    5 1 
     8    4    6 2 
     9    4   14 1 
    10    5   15 2 
    11    6   16 1 
    12    7    8 ar
    13    8   10 ar
    14    8   11 1 
    15    9   10 ar
    16   12   13 ar
    17   13   14 ar
    18   15   16 1 
    19   17   11 1 
    20   18   11 1 
@<TRIPOS>SUBSTRUCTURE
1 MOL         1
@<TRIPOS>MOLECULE
query molecule
   18    20     1     0     0
SMALL
NO_CHARGE

@<TRIPOS>ATOM
      1 C4         69.3503   52.9061   11.7288 C.ar      1 MOL     0.0725
      2 C5         69.8561   52.0658   10.7338 C.ar      1 MOL     0.0009
      3 C6         70.7142   51.0215   11.0794 C.ar      1 MOL     0.0187
      4 C7         71.9403   49.7625   12.7773 C.2       1 MOL    -0.0112
      5 C8         72.6064   49.7690   13.9673 C.2       1 MOL     0.0163
      6 C10        72.1524   48.6484   12.0532 C.2       1 MOL     0.0538
      7 N12        68.5078   53.9048   11.4193 N.ar      1 MOL    -0.2334
      8 C13        68.1255   54.1333   10.1448 C.ar      1 MOL     0.1153
      9 C15        69.4861   52.2766    9.4052 C.ar      1 MOL     0.0138
     10 C14        68.6090   53.3265    9.1063 C.ar      1 MOL     0.0445
     11 N16        67.3012   55.1456    9.8757 N.pl3     1 MOL    -0.3432
     12 C3         69.7066   52.6928   13.0597 C.ar      1 MOL     0.0295
     13 C2         70.5714   51.6513   13.4049 C.ar      1 MOL     0.0108
     14 C1         71.0938   50.8162   12.4161 C.ar      1 MOL    -0.0171
     15 C11        73.3894   48.7209   14.2675 C.2       1 MOL     0.0459
     16 S9         73.2305   47.6862   12.9618 S.3       1 MOL    -0.1054
     17 H161       67.0654   55.8107   10.5983 H         1 MOL     0.1442
     18 H162       66.9124   55.2476    8.9492 H         1 MOL     0.1442
@<TRIPOS>BOND
     1    2    1 ar
     2    1    7 ar
     3    1   12 ar
     4    3    2 ar
     5    2    9 ar
     6   14    3 ar
     7    4    5 1 
     8    4    6 2 
     9    4   14 1 
    10    5   15 2 
    11    6   16 1 
    12    7    8 ar
    13    8   10 ar
    14    8   11 1 
    15    9   10 ar
    16   12   13 ar
    17   13   14 ar
    18   15   16 1 
    19   17   11 1 
    20   18   11 1 
@<TRIPOS>SUBSTRUCTURE
1 MOL         1
@<TRIPOS>MOLECULE
query molecule
   18    20     1     0     0
SMALL
NO_CHARGE

@<TRIPOS>ATOM
      1 C4         69.3503   52.9060   11.7288 C.ar      1 MOL     0.0725
      2 C5         69.8561   52.0658   10.7338 C.ar      1 MOL     0.0009
      3 C6         70.7142   51.0214   11.0795 C.ar      1 MOL     0.0187
      4 C7         71.9403   49.7626   12.7776 C.2       1 MOL    -0.0112
      5 C8         72.6064   49.7692   13.9675 C.2       1 MOL     0.0163
      6 C10        72.1524   48.6485   12.0535 C.2       1 MOL     0.0538
      7 N12        68.5078   53.9048   11.4192 N.ar      1 MOL    -0.2334
      8 C13        68.1255   54.1332   10.1447 C.ar      1 MOL     0.1153
      9 C15        69.4861   52.2765    9.4053 C.ar      1 MOL     0.0138
     10 C14        68.6091   53.3263    9.1063 C.ar      1 MOL     0.0445
     11 N16        67.3012   55.1455    9.8755 N.pl3     1 MOL    -0.3432
     12 C3         69.7065   52.6929   13.0597 C.ar      1 MOL     0.0295
     13 C2         70.5713   51.6514   13.4050 C.ar      1 MOL     0.0108
     14 C1         71.0938   50.8163   12.4163 C.ar      1 MOL    -0.0171
     15 C11        73.3893   48.7211   14.2678 C.2       1 MOL     0.0459
     16 S9         73.2305   47.6863   12.9622 S.3       1 MOL    -0.1054
     17 H161       67.4342   55.6965    9.0396 H         1 MOL     0.1442
     18 H162       66.5436   55.3615   10.5075 H         1 MOL     0.1442
@<TRIPOS>BOND
     1    2    1 ar
     2    1    7 ar
     3    1   12 ar
     4    3    2 ar
     5    2    9 ar
     6   14    3 ar
     7    4    5 1 
     8    4    6 2 
     9    4   14 1 
    10    5   15 2 
    11    6   16 1 
    12    7    8 ar
    13    8   10 ar
    14    8   11 1 
    15    9   10 ar
    16   12   13 ar
    17   13   14 ar
    18   15   16 1 
    19   17   11 1 
    20   18   11 1 
@<TRIPOS>SUBSTRUCTURE
1 MOL         1
@<TRIPOS>MOLECULE
query molecule
   18    20     1     0     0
SMALL
NO_CHARGE

@<TRIPOS>ATOM
      1 C4         69.3503   52.9060   11.7288 C.ar      1 MOL     0.0725
      2 C5         69.8561   52.0657   10.7338 C.ar      1 MOL     0.0009
      3 C6         70.7143   51.0214   11.0796 C.ar      1 MOL     0.0187
      4 C7         71.9404   49.7627   12.7777 C.2       1 MOL    -0.0112
      5 C8         72.6065   49.7693   13.9677 C.2       1 MOL     0.0163
      6 C10        72.1525   48.6486   12.0536 C.2       1 MOL     0.0538
      7 N12        68.5077   53.9048   11.4192 N.ar      1 MOL    -0.2334
      8 C13        68.1254   54.1331   10.1446 C.ar      1 MOL     0.1153
      9 C15        69.4861   52.2764    9.4053 C.ar      1 MOL     0.0138
     10 C14        68.6090   53.3262    9.1063 C.ar      1 MOL     0.0445
     11 N16        67.3012   55.1453    9.8754 N.pl3     1 MOL    -0.3432
     12 C3         69.7065   52.6929   13.0597 C.ar      1 MOL     0.0295
     13 C2         70.5714   51.6515   13.4050 C.ar      1 MOL     0.0108
     14 C1         71.0939   50.8163   12.4164 C.ar      1 MOL    -0.0171
     15 C11        73.3895   48.7213   14.2680 C.2       1 MOL     0.0459
     16 S9         73.2307   47.6865   12.9624 S.3       1 MOL    -0.1054
     17 H161       67.6753   56.0401    9.5936 H         1 MOL     0.1442
     18 H162       66.3023   55.0176    9.9533 H         1 MOL     0.1442
@<TRIPOS>BOND
     1    2    1 ar
     2    1    7 ar
     3    1   12 ar
     4    3    2 ar
     5    2    9 ar
     6   14    3 ar
     7    4    5 1 
     8    4    6 2 
     9    4   14 1 
    10    5   15 2 
    11    6   16 1 
    12    7    8 ar
    13    8   10 ar
    14    8   11 1 
    15    9   10 ar
    16   12   13 ar
    17   13   14 ar
    18   15   16 1 
    19   17   11 1 
    20   18   11 1 
@<TRIPOS>SUBSTRUCTURE
1 MOL         1
@<TRIPOS>MOLECULE
query molecule
   18    20     1     0     0
SMALL
NO_CHARGE

@<TRIPOS>ATOM
      1 C4         71.8513   49.4576   11.9160 C.ar      1 MOL     0.0725
      2 C5         70.8485   50.4287   11.9760 C.ar      1 MOL     0.0009
      3 C6         69.8079   50.4080   11.0470 C.ar      1 MOL     0.0187
      4 C7         68.7195   49.3919    9.1093 C.2       1 MOL    -0.0112
      5 C8         67.5053   48.8661    9.4395 C.2       1 MOL     0.0163
      6 C10        68.7653   49.8844    7.8579 C.2       1 MOL     0.0538
      7 N12        72.8509   49.4485   12.8126 N.ar      1 MOL    -0.2334
      8 C13        72.9241   50.3727   13.7941 C.ar      1 MOL     0.1153
      9 C15        70.8959   51.4021   12.9742 C.ar      1 MOL     0.0138
     10 C14        71.9498   51.3745   13.8958 C.ar      1 MOL     0.0445
     11 N16        73.9415   50.3406   14.6545 N.pl3     1 MOL    -0.3432
     12 C3         71.8027   48.4748   10.9284 C.ar      1 MOL     0.0295
     13 C2         70.7643   48.4583    9.9938 C.ar      1 MOL     0.0108
     14 C1         69.7665   49.4332   10.0364 C.ar      1 MOL    -0.0171
     15 C11        66.5331   48.8718    8.5140 C.2       1 MOL     0.0459
     16 S9         67.2236   49.6080    7.1792 S.3       1 MOL    -0.1054
     17 H161       74.8850   50.4908   14.3269 H         1 MOL     0.1442
     18 H162       73.7690   50.1660   15.6342 H         1 MOL     0.1442
@<TRIPOS>BOND
     1    2    1 ar
     2    1    7 ar
     3    1   12 ar
     4    3    2 ar
     5    2    9 ar
     6   14    3 ar
     7    4    5 1 
     8    4    6 2 
     9    4   14 1 
    10    5   15 2 
    11    6   16 1 
    12    7    8 ar
    13    8   10 ar
    14    8   11 1 
    15    9   10 ar
    16   12   13 ar
    17   13   14 ar
    18   15   16 1 
    19   17   11 1 
    20   18   11 1 
@<TRIPOS>SUBSTRUCTURE
1 MOL         1
@<TRIPOS>MOLECULE
query molecule
   18    20     1     0     0
SMALL
NO_CHARGE

@<TRIPOS>ATOM
      1 C4         71.7986   49.4976   11.9622 C.ar      1 MOL     0.0725
      2 C5         70.7956   50.4681   12.0262 C.ar      1 MOL     0.0009
      3 C6         69.7421   50.4367   11.1121 C.ar      1 MOL     0.0187
      4 C7         68.6279   49.3994    9.2005 C.2       1 MOL    -0.0112
      5 C8         67.4547   48.7806    9.5172 C.2       1 MOL     0.0163
      6 C10        68.6199   49.9662    7.9802 C.2       1 MOL     0.0538
      7 N12        72.8107   49.4989   12.8447 N.ar      1 MOL    -0.2334
      8 C13        72.8965   50.4333   13.8155 C.ar      1 MOL     0.1153
      9 C15        70.8557   51.4519   13.0136 C.ar      1 MOL     0.0138
     10 C14        71.9225   51.4350   13.9205 C.ar      1 MOL     0.0445
     11 N16        73.9259   50.4112   14.6619 N.pl3     1 MOL    -0.3432
     12 C3         71.7374   48.5046   10.9856 C.ar      1 MOL     0.0295
     13 C2         70.6861   48.4772   10.0659 C.ar      1 MOL     0.0108
     14 C1         69.6877   49.4514   10.1124 C.ar      1 MOL    -0.0171
     15 C11        66.4667   48.7799    8.6086 C.2       1 MOL     0.0459
     16 S9         67.0855   49.6346    7.3097 S.3       1 MOL    -0.1054
     17 H161       74.5056   49.5870   14.7306 H         1 MOL     0.1442
     18 H162       74.1261   51.2186   15.2346 H         1 MOL     0.1442
@<TRIPOS>BOND
     1    2    1 ar
     2    1    7 ar
     3    1   12 ar
     4    3    2 ar
     5    2    9 ar
     6   14    3 ar
     7    4    5 1 
     8    4    6 2 
     9    4   14 1 
    10    5   15 2 
    11    6   16 1 
    12    7    8 ar
    13    8   10 ar
    14    8   11 1 
    15    9   10 ar
    16   12   13 ar
    17   13   14 ar
    18   15   16 1 
    19   17   11 1 
    20   18   11 1 
@<TRIPOS>SUBSTRUCTURE
1 MOL         1
@<TRIPOS>MOLECULE
query molecule
   18    20     1     0     0
SMALL
NO_CHARGE

@<TRIPOS>ATOM
      1 C4         71.8572   49.4973   11.9430 C.ar      1 MOL     0.0725
      2 C5         70.8667   50.4796   12.0203 C.ar      1 MOL     0.0009
      3 C6         69.8145   50.4759   11.1041 C.ar      1 MOL     0.0187
      4 C7         68.6906   49.4827    9.1749 C.2       1 MOL    -0.0112
      5 C8         68.2419   48.3085    8.6462 C.2       1 MOL     0.0163
      6 C10        67.9903   50.5554    8.7632 C.2       1 MOL     0.0538
      7 N12        72.8676   49.4718   12.8271 N.ar      1 MOL    -0.2334
      8 C13        72.9636   50.3899   13.8123 C.ar      1 MOL     0.1153
      9 C15        70.9377   51.4471   13.0228 C.ar      1 MOL     0.0138
     10 C14        72.0025   51.4024   13.9312 C.ar      1 MOL     0.0445
     11 N16        73.9911   50.3414   14.6600 N.pl3     1 MOL    -0.3432
     12 C3         71.7850   48.5203   10.9510 C.ar      1 MOL     0.0295
     13 C2         70.7351   48.5207   10.0293 C.ar      1 MOL     0.0108
     14 C1         69.7493   49.5069   10.0892 C.ar      1 MOL    -0.0171
     15 C11        67.2099   48.3464    7.7887 C.2       1 MOL     0.0459
     16 S9         66.8013   49.9662    7.6895 S.3       1 MOL    -0.1054
     17 H161       73.8801   50.6728   15.6075 H         1 MOL     0.1442
     18 H162       74.8806   49.9732   14.3547 H         1 MOL     0.1442
@<TRIPOS>BOND
     1    2    1 ar
     2    1    7 ar
     3    1   12 ar
     4    3    2 ar
     5    2    9 ar
     6   14    3 ar
     7    4    5 1 
     8    4    6 2 
     9    4   14 1 
    10    5   15 2 
    11    6   16 1 
    12    7    8 ar
    13    8   10 ar
    14    8   11 1 
    15    9   10 ar
    16   12   13 ar
    17   13   14 ar
    18   15   16 1 
    19   17   11 1 
    20   18   11 1 
@<TRIPOS>SUBSTRUCTURE
1 MOL         1
@<TRIPOS>MOLECULE
query molecule
   18    20     1     0     0
SMALL
NO_CHARGE

@<TRIPOS>ATOM
      1 C4         71.4321   50.4762   10.2025 C.ar      1 MOL     0.0725
      2 C5         72.5222   49.6113   10.3269 C.ar      1 MOL     0.0009
      3 C6         73.1132   49.0729    9.1835 C.ar      1 MOL     0.0187
      4 C7         73.2058   48.8532    6.7515 C.2       1 MOL    -0.0112
      5 C8         74.5304   49.0467    6.4914 C.2       1 MOL     0.0163
      6 C10        72.5856   48.0964    5.8279 C.2       1 MOL     0.0538
      7 N12        70.8614   51.0202   11.2895 N.ar      1 MOL    -0.2334
      8 C13        71.3149   50.7497   12.5321 C.ar      1 MOL     0.1153
      9 C15        73.0134   49.3058   11.5964 C.ar      1 MOL     0.0138
     10 C14        72.3999   49.8824   12.7153 C.ar      1 MOL     0.0445
     11 N16        70.7106   51.2958   13.5872 N.pl3     1 MOL    -0.3432
     12 C3         70.9445   50.7952    8.9359 C.ar      1 MOL     0.0295
     13 C2         71.5319   50.2505    7.7913 C.ar      1 MOL     0.0108
     14 C1         72.6116   49.3736    7.9063 C.ar      1 MOL    -0.0171
     15 C11        75.0487   48.5067    5.3772 C.2       1 MOL     0.0459
     16 S9         73.7675   47.7031    4.6607 S.3       1 MOL    -0.1054
     17 H161       70.2660   50.7058   14.2759 H         1 MOL     0.1442
     18 H162       70.6973   52.2996   13.6980 H         1 MOL     0.1442
@<TRIPOS>BOND
     1    2    1 ar
     2    1    7 ar
     3    1   12 ar
     4    3    2 ar
     5    2    9 ar
     6   14    3 ar
     7    4    5 1 
     8    4    6 2 
     9    4   14 1 
    10    5   15 2 
    11    6   16 1 
    12    7    8 ar
    13    8   10 ar
    14    8   11 1 
    15    9   10 ar
    16   12   13 ar
    17   13   14 ar
    18   15   16 1 
    19   17   11 1 
    20   18   11 1 
@<TRIPOS>SUBSTRUCTURE
1 MOL         1
@<TRIPOS>MOLECULE
query molecule
   18    20     1     0     0
SMALL
NO_CHARGE

@<TRIPOS>ATOM
      1 C4         71.3986   50.4326   10.5611 C.ar      1 MOL     0.0725
      2 C5         72.5029   49.5921   10.7225 C.ar      1 MOL     0.0009
      3 C6         73.1257   49.0438    9.6010 C.ar      1 MOL     0.0187
      4 C7         73.2687   48.7796    7.1759 C.2       1 MOL    -0.0112
      5 C8         72.9716   47.5264    6.7275 C.2       1 MOL     0.0163
      6 C10        74.1593   49.4261    6.4017 C.2       1 MOL     0.0538
      7 N12        70.7970   50.9858   11.6266 N.ar      1 MOL    -0.2334
      8 C13        71.2320   50.7482   12.8823 C.ar      1 MOL     0.1153
      9 C15        72.9758   49.3206   12.0067 C.ar      1 MOL     0.0138
     10 C14        72.3301   49.9062   13.1026 C.ar      1 MOL     0.0445
     11 N16        70.5974   51.3022   13.9152 N.pl3     1 MOL    -0.3432
     12 C3         70.9290   50.7176    9.2797 C.ar      1 MOL     0.0295
     13 C2         71.5485   50.1629    8.1570 C.ar      1 MOL     0.0108
     14 C1         72.6427   49.3100    8.3091 C.ar      1 MOL    -0.0171
     15 C11        73.5902   47.0789    5.6235 C.2       1 MOL     0.0459
     16 S9         74.5735   48.3461    5.1463 S.3       1 MOL    -0.1054
     17 H161       70.5322   50.8065   14.7928 H         1 MOL     0.1442
     18 H162       70.1816   52.2177   13.8203 H         1 MOL     0.1442
@<TRIPOS>BOND
     1    2    1 ar
     2    1    7 ar
     3    1   12 ar
     4    3    2 ar
     5    2    9 ar
     6   14    3 ar
     7    4    5 1 
     8    4    6 2 
     9    4   14 1 
    10    5   15 2 
    11    6   16 1 
    12    7    8 ar
    13    8   10 ar
    14    8   11 1 
    15    9   10 ar
    16   12   13 ar
    17   13   14 ar
    18   15   16 1 
    19   17   11 1 
    20   18   11 1 
@<TRIPOS>SUBSTRUCTURE
1 MOL         1
@<TRIPOS>MOLECULE
query molecule
   18    20     1     0     0
SMALL
NO_CHARGE

@<TRIPOS>ATOM
      1 C4         71.3170   50.7774   11.7077 C.ar      1 MOL     0.0725
      2 C5         72.4333   49.9507   11.8577 C.ar      1 MOL     0.0009
      3 C6         72.9960   49.3369   10.7382 C.ar      1 MOL     0.0187
      4 C7         73.0054   48.9268    8.3293 C.2       1 MOL    -0.0112
      5 C8         74.3056   49.1545    7.9866 C.2       1 MOL     0.0163
      6 C10        72.3810   48.0619    7.5091 C.2       1 MOL     0.0538
      7 N12        70.7724   51.3927   12.7698 N.ar      1 MOL    -0.2334
      8 C13        71.2779   51.2325   14.0114 C.ar      1 MOL     0.1153
      9 C15        72.9783   49.7585   13.1274 C.ar      1 MOL     0.0138
     10 C14        72.3912   50.4079   14.2204 C.ar      1 MOL     0.0445
     11 N16        70.6985   51.8465   15.0428 N.pl3     1 MOL    -0.3432
     12 C3         70.7754   50.9832   10.4397 C.ar      1 MOL     0.0295
     13 C2         71.3346   50.3631    9.3197 C.ar      1 MOL     0.0108
     14 C1         72.4404   49.5234    9.4616 C.ar      1 MOL    -0.0171
     15 C11        74.7977   48.5387    6.9002 C.2       1 MOL     0.0459
     16 S9         73.5257   47.6168    6.3235 S.3       1 MOL    -0.1054
     17 H161       70.6034   52.8520   15.0434 H         1 MOL     0.1442
     18 H162       70.3544   51.3063   15.8237 H         1 MOL     0.1442
@<TRIPOS>BOND
     1    2    1 ar
     2    1    7 ar
     3    1   12 ar
     4    3    2 ar
     5    2    9 ar
     6   14    3 ar
     7    4    5 1 
     8    4    6 2 
     9    4   14 1 
    10    5   15 2 
    11    6   16 1 
    12    7    8 ar
    13    8   10 ar
    14    8   11 1 
    15    9   10 ar
    16   12   13 ar
    17   13   14 ar
    18   15   16 1 
    19   17   11 1 
    20   18   11 1 
@<TRIPOS>SUBSTRUCTURE
1 MOL         1
@<TRIPOS>MOLECULE
query molecule
   18    20     1     0     0
SMALL
NO_CHARGE

@<TRIPOS>ATOM
      1 C4         73.6447   48.2570    5.4105 C.ar      1 MOL     0.0725
      2 C5         74.2546   47.0019    5.3415 C.ar      1 MOL     0.0009
      3 C6         74.1314   46.2348    4.1826 C.ar      1 MOL     0.0187
      4 C7         73.2656   45.9480    1.9156 C.2       1 MOL    -0.0112
      5 C8         72.3081   46.2332    0.9874 C.2       1 MOL     0.0163
      6 C10        74.0726   44.9333    1.5554 C.2       1 MOL     0.0538
      7 N12        73.7674   49.0190    6.5094 N.ar      1 MOL    -0.2334
      8 C13        74.4758   48.6009    7.5800 C.ar      1 MOL     0.1153
      9 C15        74.9899   46.5362    6.4318 C.ar      1 MOL     0.0138
     10 C14        75.1010   47.3471    7.5680 C.ar      1 MOL     0.0445
     11 N16        74.5598   49.3789    8.6589 N.pl3     1 MOL    -0.3432
     12 C3         72.9189   48.7331    4.3196 C.ar      1 MOL     0.0295
     13 C2         72.7898   47.9620    3.1618 C.ar      1 MOL     0.0108
     14 C1         73.3826   46.7006    3.0892 C.ar      1 MOL    -0.0171
     15 C11        72.2571   45.4885   -0.1281 C.2       1 MOL     0.0459
     16 S9         73.5150   44.3967    0.0339 S.3       1 MOL    -0.1054
     17 H161       75.2901   50.0734    8.7252 H         1 MOL     0.1442
     18 H162       73.8931   49.2740    9.4103 H         1 MOL     0.1442
@<TRIPOS>BOND
     1    2    1 ar
     2    1    7 ar
     3    1   12 ar
     4    3    2 ar
     5    2    9 ar
     6   14    3 ar
     7    4    5 1 
     8    4    6 2 
     9    4   14 1 
    10    5   15 2 
    11    6   16 1 
    12    7    8 ar
    13    8   10 ar
    14    8   11 1 
    15    9   10 ar
    16   12   13 ar
    17   13   14 ar
    18   15   16 1 
    19   17   11 1 
    20   18   11 1 
@<TRIPOS>SUBSTRUCTURE
1 MOL         1
@<TRIPOS>MOLECULE
query molecule
   18    20     1     0     0
SMALL
NO_CHARGE

@<TRIPOS>ATOM
      1 C4         73.6339   48.2137    5.1614 C.ar      1 MOL     0.0725
      2 C5         74.2849   46.9793    5.0944 C.ar      1 MOL     0.0009
      3 C6         74.1670   46.1956    3.9461 C.ar      1 MOL     0.0187
      4 C7         73.2704   45.8541    1.6987 C.2       1 MOL    -0.0112
      5 C8         72.2928   46.1024    0.7808 C.2       1 MOL     0.0163
      6 C10        74.0997   44.8575    1.3388 C.2       1 MOL     0.0538
      7 N12        73.7504   48.9916    6.2497 N.ar      1 MOL    -0.2334
      8 C13        74.4921   48.6099    7.3113 C.ar      1 MOL     0.1153
      9 C15        75.0555   46.5511    6.1757 C.ar      1 MOL     0.0138
     10 C14        75.1594   47.3779    7.3010 C.ar      1 MOL     0.0445
     11 N16        74.5690   49.4023    8.3802 N.pl3     1 MOL    -0.3432
     12 C3         72.8725   48.6526    4.0791 C.ar      1 MOL     0.0295
     13 C2         72.7488   47.8646    2.9322 C.ar      1 MOL     0.0108
     14 C1         73.3830   46.6233    2.8619 C.ar      1 MOL    -0.0171
     15 C11        72.2469   45.3435   -0.3253 C.2       1 MOL     0.0459
     16 S9         73.5361   44.2881   -0.1685 S.3       1 MOL    -0.1054
     17 H161       75.2762   50.1219    8.4256 H         1 MOL     0.1442
     18 H162       73.9201   49.2832    9.1449 H         1 MOL     0.1442
@<TRIPOS>BOND
     1    2    1 ar
     2    1    7 ar
     3    1   12 ar
     4    3    2 ar
     5    2    9 ar
     6   14    3 ar
     7    4    5 1 
     8    4    6 2 
     9    4   14 1 
    10    5   15 2 
    11    6   16 1 
    12    7    8 ar
    13    8   10 ar
    14    8   11 1 
    15    9   10 ar
    16   12   13 ar
    17   13   14 ar
    18   15   16 1 
    19   17   11 1 
    20   18   11 1 
@<TRIPOS>SUBSTRUCTURE
1 MOL         1
@<TRIPOS>MOLECULE
query molecule
   18    20     1     0     0
SMALL
NO_CHARGE

@<TRIPOS>ATOM
      1 C4         73.6054   48.3127    5.4540 C.ar      1 MOL     0.0725
      2 C5         74.2259   47.0749    5.2672 C.ar      1 MOL     0.0009
      3 C6         74.0404   46.3807    4.0713 C.ar      1 MOL     0.0187
      4 C7         73.0382   46.2232    1.8481 C.2       1 MOL    -0.0112
      5 C8         72.2157   46.7165    0.8787 C.2       1 MOL     0.0163
      6 C10        73.6595   45.0840    1.4921 C.2       1 MOL     0.0538
      7 N12        73.7867   49.0056    6.5898 N.ar      1 MOL    -0.2334
      8 C13        74.5661   48.5327    7.5857 C.ar      1 MOL     0.1153
      9 C15        75.0339   46.5537    6.2780 C.ar      1 MOL     0.0138
     10 C14        75.2054   47.2928    7.4549 C.ar      1 MOL     0.0445
     11 N16        74.7073   49.2422    8.7052 N.pl3     1 MOL    -0.3432
     12 C3         72.8067   48.8445    4.4426 C.ar      1 MOL     0.0295
     13 C2         72.6154   48.1461    3.2479 C.ar      1 MOL     0.0108
     14 C1         73.2188   46.9020    3.0582 C.ar      1 MOL    -0.0171
     15 C11        72.0975   46.0309   -0.2692 C.2       1 MOL     0.0459
     16 S9         73.1114   44.7128   -0.0813 S.3       1 MOL    -0.1054
     17 H161       74.5261   50.2358    8.6996 H         1 MOL     0.1442
     18 H162       74.9956   48.7863    9.5590 H         1 MOL     0.1442
@<TRIPOS>BOND
     1    2    1 ar
     2    1    7 ar
     3    1   12 ar
     4    3    2 ar
     5    2    9 ar
     6   14    3 ar
     7    4    5 1 
     8    4    6 2 
     9    4   14 1 
    10    5   15 2 
    11    6   16 1 
    12    7    8 ar
    13    8   10 ar
    14    8   11 1 
    15    9   10 ar
    16   12   13 ar
    17   13   14 ar
    18   15   16 1 
    19   17   11 1 
    20   18   11 1 
@<TRIPOS>SUBSTRUCTURE
1 MOL         1
@<TRIPOS>MOLECULE
query molecule
   18    20     1     0     0
SMALL
NO_CHARGE

@<TRIPOS>ATOM
      1 C4         74.7515   46.9600    7.3712 C.ar      1 MOL     0.0725
      2 C5         75.0369   47.9916    8.2691 C.ar      1 MOL     0.0009
      3 C6         75.9613   47.7826    9.2930 C.ar      1 MOL     0.0187
      4 C7         77.5357   46.3215   10.4583 C.2       1 MOL    -0.0112
      5 C8         78.5354   47.2181   10.6957 C.2       1 MOL     0.0163
      6 C10        77.5406   45.2791   11.3091 C.2       1 MOL     0.0538
      7 N12        73.8795   47.1471    6.3673 N.ar      1 MOL    -0.2334
      8 C13        73.2495   48.3285    6.1935 C.ar      1 MOL     0.1153
      9 C15        74.3999   49.2241    8.1222 C.ar      1 MOL     0.0138
     10 C14        73.4920   49.3945    7.0699 C.ar      1 MOL     0.0445
     11 N16        72.3776   48.4695    5.1953 N.pl3     1 MOL    -0.3432
     12 C3         75.3941   45.7301    7.5053 C.ar      1 MOL     0.0295
     13 C2         76.3145   45.5186    8.5349 C.ar      1 MOL     0.0108
     14 C1         76.5948   46.5382    9.4458 C.ar      1 MOL    -0.0171
     15 C11        79.3970   46.9656   11.6936 C.2       1 MOL     0.0459
     16 S9         78.8682   45.5219   12.3543 S.3       1 MOL    -0.1054
     17 H161       71.6663   47.7688    5.0432 H         1 MOL     0.1442
     18 H162       72.4282   49.2771    4.5910 H         1 MOL     0.1442
@<TRIPOS>BOND
     1    2    1 ar
     2    1    7 ar
     3    1   12 ar
     4    3    2 ar
     5    2    9 ar
     6   14    3 ar
     7    4    5 1 
     8    4    6 2 
     9    4   14 1 
    10    5   15 2 
    11    6   16 1 
    12    7    8 ar
    13    8   10 ar
    14    8   11 1 
    15    9   10 ar
    16   12   13 ar
    17   13   14 ar
    18   15   16 1 
    19   17   11 1 
    20   18   11 1 
@<TRIPOS>SUBSTRUCTURE
1 MOL         1
@<TRIPOS>MOLECULE
query molecule
   18    20     1     0     0
SMALL
NO_CHARGE

@<TRIPOS>ATOM
      1 C4         74.6805   46.9523    7.3862 C.ar      1 MOL     0.0725
      2 C5         75.0489   47.9529    8.2890 C.ar      1 MOL     0.0009
      3 C6         76.0519   47.7049    9.2265 C.ar      1 MOL     0.0187
      4 C7         77.7019   46.1961   10.2128 C.2       1 MOL    -0.0112
      5 C8         77.4194   45.9581   11.5255 C.2       1 MOL     0.0163
      6 C10        79.0136   46.1109    9.9252 C.2       1 MOL     0.0538
      7 N12        73.7311   47.1774    6.4636 N.ar      1 MOL    -0.2334
      8 C13        73.1008   48.3683    6.3788 C.ar      1 MOL     0.1153
      9 C15        74.4142   49.1941    8.2331 C.ar      1 MOL     0.0138
     10 C14        73.4249   49.4043    7.2647 C.ar      1 MOL     0.0445
     11 N16        72.1515   48.5472    5.4604 N.pl3     1 MOL    -0.3432
     12 C3         75.3197   45.7141    7.4290 C.ar      1 MOL     0.0295
     13 C2         76.3193   45.4634    8.3724 C.ar      1 MOL     0.0108
     14 C1         76.6833   46.4516    9.2883 C.ar      1 MOL    -0.0171
     15 C11        78.4371   45.6998   12.3618 C.2       1 MOL     0.0459
     16 S9         79.8022   45.7482   11.3950 S.3       1 MOL    -0.1054
     17 H161       71.4812   49.2952    5.5661 H         1 MOL     0.1442
     18 H162       72.1025   47.9347    4.6589 H         1 MOL     0.1442
@<TRIPOS>BOND
     1    2    1 ar
     2    1    7 ar
     3    1   12 ar
     4    3    2 ar
     5    2    9 ar
     6   14    3 ar
     7    4    5 1 
     8    4    6 2 
     9    4   14 1 
    10    5   15 2 
    11    6   16 1 
    12    7    8 ar
    13    8   10 ar
    14    8   11 1 
    15    9   10 ar
    16   12   13 ar
    17   13   14 ar
    18   15   16 1 
    19   17   11 1 
    20   18   11 1 
@<TRIPOS>SUBSTRUCTURE
1 MOL         1
@<TRIPOS>MOLECULE
query molecule
   18    20     1     0     0
SMALL
NO_CHARGE

@<TRIPOS>ATOM
      1 C4         74.6792   46.9627    7.4017 C.ar      1 MOL     0.0725
      2 C5         75.0396   48.0118    8.2510 C.ar      1 MOL     0.0009
      3 C6         75.9848   47.7970    9.2545 C.ar      1 MOL     0.0187
      4 C7         77.5258   46.3069   10.4277 C.2       1 MOL    -0.0112
      5 C8         78.5275   47.2040   10.6543 C.2       1 MOL     0.0163
      6 C10        77.5499   45.2565   11.2683 C.2       1 MOL     0.0538
      7 N12        73.7860   47.1538    6.4174 N.ar      1 MOL    -0.2334
      8 C13        73.2059   48.3564    6.2175 C.ar      1 MOL     0.1153
      9 C15        74.4558   49.2667    8.0762 C.ar      1 MOL     0.0138
     10 C14        73.5243   49.4411    7.0452 C.ar      1 MOL     0.0445
     11 N16        72.3109   48.5018    5.2406 N.pl3     1 MOL    -0.3432
     12 C3         75.2685   45.7095    7.5635 C.ar      1 MOL     0.0295
     13 C2         76.2097   45.4927    8.5728 C.ar      1 MOL     0.0108
     14 C1         76.5648   46.5306    9.4358 C.ar      1 MOL    -0.0171
     15 C11        79.4090   46.9445   11.6328 C.2       1 MOL     0.0459
     16 S9         78.8969   45.4930   12.2898 S.3       1 MOL    -0.1054
     17 H161       72.0732   47.7160    4.6523 H         1 MOL     0.1442
     18 H162       71.8702   49.3978    5.0887 H         1 MOL     0.1442
@<TRIPOS>BOND
     1    2    1 ar
     2    1    7 ar
     3    1   12 ar
     4    3    2 ar
     5    2    9 ar
     6   14    3 ar
     7    4    5 1 
     8    4    6 2 
     9    4   14 1 
    10    5   15 2 
    11    6   16 1 
    12    7    8 ar
    13    8   10 ar
    14    8   11 1 
    15    9   10 ar
    16   12   13 ar
    17   13   14 ar
    18   15   16 1 
    19   17   11 1 
    20   18   11 1 
@<TRIPOS>SUBSTRUCTURE
1 MOL         1
@<TRIPOS>MOLECULE
query molecule
   18    20     1     0     0
SMALL
NO_CHARGE

@<TRIPOS>ATOM
      1 C4         72.2114   49.7679    9.4952 C.ar      1 MOL     0.0725
      2 C5         72.4027   49.0807   10.6964 C.ar      1 MOL     0.0009
      3 C6         73.5085   48.2434   10.8468 C.ar      1 MOL     0.0187
      4 C7         75.5447   47.2419    9.9398 C.2       1 MOL    -0.0112
      5 C8         76.7543   47.7548   10.3051 C.2       1 MOL     0.0163
      6 C10        75.5552   45.9047    9.7903 C.2       1 MOL     0.0538
      7 N12        71.1641   50.5935    9.3374 N.ar      1 MOL    -0.2334
      8 C13        70.2636   50.7844   10.3250 C.ar      1 MOL     0.1153
      9 C15        71.4884   49.2504   11.7364 C.ar      1 MOL     0.0138
     10 C14        70.4023   50.1138   11.5473 C.ar      1 MOL     0.0445
     11 N16        69.2278   51.5987   10.1236 N.pl3     1 MOL    -0.3432
     12 C3         73.1284   49.6121    8.4567 C.ar      1 MOL     0.0295
     13 C2         74.2319   48.7682    8.6048 C.ar      1 MOL     0.0108
     14 C1         74.4231   48.0657    9.7955 C.ar      1 MOL    -0.0171
     15 C11        77.7896   46.9123   10.4466 C.2       1 MOL     0.0459
     16 S9         77.1539   45.4007   10.1129 S.3       1 MOL    -0.1054
     17 H161       68.3435   51.2234    9.8117 H         1 MOL     0.1442
     18 H162       69.3272   52.5911   10.2830 H         1 MOL     0.1442
@<TRIPOS>BOND
     1    2    1 ar
     2    1    7 ar
     3    1   12 ar
     4    3    2 ar
     5    2    9 ar
     6   14    3 ar
     7    4    5 1 
     8    4    6 2 
     9    4   14 1 
    10    5   15 2 
    11    6   16 1 
    12    7    8 ar
    13    8   10 ar
    14    8   11 1 
    15    9   10 ar
    16   12   13 ar
    17   13   14 ar
    18   15   16 1 
    19   17   11 1 
    20   18   11 1 
@<TRIPOS>SUBSTRUCTURE
1 MOL         1
@<TRIPOS>MOLECULE
query molecule
   18    20     1     0     0
SMALL
NO_CHARGE

@<TRIPOS>ATOM
      1 C4         72.3796   49.8652    9.3788 C.ar      1 MOL     0.0725
      2 C5         72.6510   49.2094   10.5822 C.ar      1 MOL     0.0009
      3 C6         73.7570   48.3641   10.6762 C.ar      1 MOL     0.0187
      4 C7         75.7127   47.3148    9.6537 C.2       1 MOL    -0.0112
      5 C8         75.6932   46.0499    9.1445 C.2       1 MOL     0.0163
      6 C10        76.9020   47.6599   10.1801 C.2       1 MOL     0.0538
      7 N12        71.3314   50.6979    9.2734 N.ar      1 MOL    -0.2334
      8 C13        70.5066   50.9263   10.3176 C.ar      1 MOL     0.1153
      9 C15        71.8160   49.4182   11.6801 C.ar      1 MOL     0.0138
     10 C14        70.7271   50.2883   11.5454 C.ar      1 MOL     0.0445
     11 N16        69.4665   51.7464   10.1683 N.pl3     1 MOL    -0.3432
     12 C3         73.2176   49.6703    8.2818 C.ar      1 MOL     0.0295
     13 C2         74.3210   48.8184    8.3739 C.ar      1 MOL     0.0108
     14 C1         74.5914   48.1470    9.5673 C.ar      1 MOL    -0.0171
     15 C11        76.8059   45.3051    9.2398 C.2       1 MOL     0.0459
     16 S9         77.9172   46.2996    9.9992 S.3       1 MOL    -0.1054
     17 H161       69.4433   52.3972    9.3963 H         1 MOL     0.1442
     18 H162       68.7017   51.7171   10.8272 H         1 MOL     0.1442
@<TRIPOS>BOND
     1    2    1 ar
     2    1    7 ar
     3    1   12 ar
     4    3    2 ar
     5    2    9 ar
     6   14    3 ar
     7    4    5 1 
     8    4    6 2 
     9    4   14 1 
    10    5   15 2 
    11    6   16 1 
    12    7    8 ar
    13    8   10 ar
    14    8   11 1 
    15    9   10 ar
    16   12   13 ar
    17   13   14 ar
    18   15   16 1 
    19   17   11 1 
    20   18   11 1 
@<TRIPOS>SUBSTRUCTURE
1 MOL         1
@<TRIPOS>MOLECULE
query molecule
   18    20     1     0     0
SMALL
NO_CHARGE

@<TRIPOS>ATOM
      1 C4         72.9179   49.5031    9.4091 C.ar      1 MOL     0.0725
      2 C5         73.0099   48.7891   10.6065 C.ar      1 MOL     0.0009
      3 C6         74.1141   47.9693   10.8410 C.ar      1 MOL     0.0187
      4 C7         76.2474   47.0298   10.1073 C.2       1 MOL    -0.0112
      5 C8         76.1265   45.6795   10.2547 C.2       1 MOL     0.0163
      6 C10        77.5210   47.4606   10.1609 C.2       1 MOL     0.0538
      7 N12        71.8729   50.3125    9.1724 N.ar      1 MOL    -0.2334
      8 C13        70.8796   50.4611   10.0746 C.ar      1 MOL     0.1153
      9 C15        71.9983   48.9150   11.5590 C.ar      1 MOL     0.0138
     10 C14        70.9168   49.7623   11.2885 C.ar      1 MOL     0.0445
     11 N16        69.8503   51.2606    9.7955 N.pl3     1 MOL    -0.3432
     12 C3         73.9317   49.3911    8.4586 C.ar      1 MOL     0.0295
     13 C2         75.0340   48.5647    8.6905 C.ar      1 MOL     0.0108
     14 C1         75.1272   47.8358    9.8771 C.ar      1 MOL    -0.0171
     15 C11        77.2393   44.9559   10.4540 C.2       1 MOL     0.0459
     16 S9         78.4829   46.0754   10.4254 S.3       1 MOL    -0.1054
     17 H161       69.9319   51.9522    9.0640 H         1 MOL     0.1442
     18 H162       68.9887   51.1748   10.3155 H         1 MOL     0.1442
@<TRIPOS>BOND
     1    2    1 ar
     2    1    7 ar
     3    1   12 ar
     4    3    2 ar
     5    2    9 ar
     6   14    3 ar
     7    4    5 1 
     8    4    6 2 
     9    4   14 1 
    10    5   15 2 
    11    6   16 1 
    12    7    8 ar
    13    8   10 ar
    14    8   11 1 
    15    9   10 ar
    16   12   13 ar
    17   13   14 ar
    18   15   16 1 
    19   17   11 1 
    20   18   11 1 
@<TRIPOS>SUBSTRUCTURE
1 MOL         1
@<TRIPOS>MOLECULE
query molecule
   18    20     1     0     0
SMALL
NO_CHARGE

@<TRIPOS>ATOM
      1 C4         73.0761   47.4811    3.9276 C.ar      1 MOL     0.0725
      2 C5         73.8182   46.3551    4.2929 C.ar      1 MOL     0.0009
      3 C6         74.4161   46.2984    5.5522 C.ar      1 MOL     0.0187
      4 C7         74.8798   47.3187    7.7237 C.2       1 MOL    -0.0112
      5 C8         74.2767   47.9015    8.7990 C.2       1 MOL     0.0163
      6 C10        76.0220   46.6790    8.0343 C.2       1 MOL     0.0538
      7 N12        72.4767   47.5470    2.7278 N.ar      1 MOL    -0.2334
      8 C13        72.5722   46.5369    1.8372 C.ar      1 MOL     0.1153
      9 C15        73.9421   45.2948    3.3947 C.ar      1 MOL     0.0138
     10 C14        73.3109   45.3877    2.1482 C.ar      1 MOL     0.0445
     11 N16        71.9772   46.6474    0.6496 N.pl3     1 MOL    -0.3432
     12 C3         72.9383   48.5386    4.8256 C.ar      1 MOL     0.0295
     13 C2         73.5429   48.4847    6.0839 C.ar      1 MOL     0.0108
     14 C1         74.2988   47.3706    6.4520 C.ar      1 MOL    -0.0171
     15 C11        74.8722   47.8019    9.9978 C.2       1 MOL     0.0459
     16 S9         76.2517   46.8990    9.7115 S.3       1 MOL    -0.1054
     17 H161       71.5214   45.8463    0.2366 H         1 MOL     0.1442
     18 H162       71.9820   47.5322    0.1627 H         1 MOL     0.1442
@<TRIPOS>BOND
     1    2    1 ar
     2    1    7 ar
     3    1   12 ar
     4    3    2 ar
     5    2    9 ar
     6   14    3 ar
     7    4    5 1 
     8    4    6 2 
     9    4   14 1 
    10    5   15 2 
    11    6   16 1 
    12    7    8 ar
    13    8   10 ar
    14    8   11 1 
    15    9   10 ar
    16   12   13 ar
    17   13   14 ar
    18   15   16 1 
    19   17   11 1 
    20   18   11 1 
@<TRIPOS>SUBSTRUCTURE
1 MOL         1
@<TRIPOS>MOLECULE
query molecule
   18    20     1     0     0
SMALL
NO_CHARGE

@<TRIPOS>ATOM
      1 C4         73.0795   47.2971    3.1677 C.ar      1 MOL     0.0725
      2 C5         73.8948   46.2171    3.5154 C.ar      1 MOL     0.0009
      3 C6         74.5130   46.1904    4.7658 C.ar      1 MOL     0.0187
      4 C7         74.9438   47.2252    6.9372 C.2       1 MOL    -0.0112
      5 C8         75.5027   46.0838    7.4316 C.2       1 MOL     0.0163
      6 C10        75.0794   48.2840    7.7564 C.2       1 MOL     0.0538
      7 N12        72.4601   47.3327    1.9768 N.ar      1 MOL    -0.2334
      8 C13        72.6050   46.3354    1.0784 C.ar      1 MOL     0.1153
      9 C15        74.0711   45.1716    2.6087 C.ar      1 MOL     0.0138
     10 C14        73.4177   45.2324    1.3716 C.ar      1 MOL     0.0445
     11 N16        71.9874   46.4155   -0.1001 N.pl3     1 MOL    -0.3432
     12 C3         72.8896   48.3390    4.0744 C.ar      1 MOL     0.0295
     13 C2         73.5142   48.3155    5.3238 C.ar      1 MOL     0.0108
     14 C1         74.3426   47.2483    5.6741 C.ar      1 MOL    -0.0171
     15 C11        76.0823   46.1278    8.6415 C.2       1 MOL     0.0459
     16 S9         75.9093   47.7170    9.1362 S.3       1 MOL    -0.1054
     17 H161       71.5762   45.5901   -0.5119 H         1 MOL     0.1442
     18 H162       71.9307   47.3018   -0.5812 H         1 MOL     0.1442
@<TRIPOS>BOND
     1    2    1 ar
     2    1    7 ar
     3    1   12 ar
     4    3    2 ar
     5    2    9 ar
     6   14    3 ar
     7    4    5 1 
     8    4    6 2 
     9    4   14 1 
    10    5   15 2 
    11    6   16 1 
    12    7    8 ar
    13    8   10 ar
    14    8   11 1 
    15    9   10 ar
    16   12   13 ar
    17   13   14 ar
    18   15   16 1 
    19   17   11 1 
    20   18   11 1 
@<TRIPOS>SUBSTRUCTURE
1 MOL         1
@<TRIPOS>MOLECULE
query molecule
   18    20     1     0     0
SMALL
NO_CHARGE

@<TRIPOS>ATOM
      1 C4         73.0795   47.2969    3.1677 C.ar      1 MOL     0.0725
      2 C5         73.8943   46.2164    3.5152 C.ar      1 MOL     0.0009
      3 C6         74.5118   46.1888    4.7660 C.ar      1 MOL     0.0187
      4 C7         74.9417   47.2223    6.9382 C.2       1 MOL    -0.0112
      5 C8         75.1778   48.3743    7.6288 C.2       1 MOL     0.0163
      6 C10        75.2975   46.1135    7.6123 C.2       1 MOL     0.0538
      7 N12        72.4607   47.3332    1.9765 N.ar      1 MOL    -0.2334
      8 C13        72.6059   46.3364    1.0776 C.ar      1 MOL     0.1153
      9 C15        74.0708   45.1714    2.6080 C.ar      1 MOL     0.0138
     10 C14        73.4181   45.2330    1.3707 C.ar      1 MOL     0.0445
     11 N16        71.9889   46.4174   -0.1011 N.pl3     1 MOL    -0.3432
     12 C3         72.8893   48.3383    4.0749 C.ar      1 MOL     0.0295
     13 C2         73.5133   48.3139    5.3246 C.ar      1 MOL     0.0108
     14 C1         74.3412   47.2462    5.6748 C.ar      1 MOL    -0.0171
     15 C11        75.7390   48.2869    8.8451 C.2       1 MOL     0.0459
     16 S9         75.9427   46.6456    9.1004 S.3       1 MOL    -0.1054
     17 H161       71.3477   47.1759   -0.2845 H         1 MOL     0.1442
     18 H162       72.1627   45.7203   -0.8110 H         1 MOL     0.1442
@<TRIPOS>BOND
     1    2    1 ar
     2    1    7 ar
     3    1   12 ar
     4    3    2 ar
     5    2    9 ar
     6   14    3 ar
     7    4    5 1 
     8    4    6 2 
     9    4   14 1 
    10    5   15 2 
    11    6   16 1 
    12    7    8 ar
    13    8   10 ar
    14    8   11 1 
    15    9   10 ar
    16   12   13 ar
    17   13   14 ar
    18   15   16 1 
    19   17   11 1 
    20   18   11 1 
@<TRIPOS>SUBSTRUCTURE
1 MOL         1
@<TRIPOS>MOLECULE
query molecule
   18    20     1     0     0
SMALL
NO_CHARGE

@<TRIPOS>ATOM
      1 C4         76.3505   46.2605    8.6745 C.ar      1 MOL     0.0725
      2 C5         76.3853   47.1019    9.7893 C.ar      1 MOL     0.0009
      3 C6         75.3162   47.9623   10.0412 C.ar      1 MOL     0.0187
      4 C7         73.1264   48.8549    9.4254 C.2       1 MOL    -0.0112
      5 C8         72.1978   48.5481   10.3759 C.2       1 MOL     0.0163
      6 C10        72.9037   50.0377    8.8239 C.2       1 MOL     0.0538
      7 N12        77.3604   45.4114    8.4251 N.ar      1 MOL    -0.2334
      8 C13        78.4389   45.3438    9.2345 C.ar      1 MOL     0.1153
      9 C15        77.4871   47.0621   10.6441 C.ar      1 MOL     0.0138
     10 C14        78.5297   46.1710   10.3617 C.ar      1 MOL     0.0445
     11 N16        79.4290   44.5002    8.9436 N.pl3     1 MOL    -0.3432
     12 C3         75.2465   46.2869    7.8235 C.ar      1 MOL     0.0295
     13 C2         74.1792   47.1534    8.0720 C.ar      1 MOL     0.0108
     14 C1         74.2118   48.0085    9.1745 C.ar      1 MOL    -0.0171
     15 C11        71.1890   49.4085   10.5853 C.2       1 MOL     0.0459
     16 S9         71.4782   50.6671    9.5210 S.3       1 MOL    -0.1054
     17 H161       79.4358   44.0158    8.0574 H         1 MOL     0.1442
     18 H162       80.1725   44.3453    9.6094 H         1 MOL     0.1442
@<TRIPOS>BOND
     1    2    1 ar
     2    1    7 ar
     3    1   12 ar
     4    3    2 ar
     5    2    9 ar
     6   14    3 ar
     7    4    5 1 
     8    4    6 2 
     9    4   14 1 
    10    5   15 2 
    11    6   16 1 
    12    7    8 ar
    13    8   10 ar
    14    8   11 1 
    15    9   10 ar
    16   12   13 ar
    17   13   14 ar
    18   15   16 1 
    19   17   11 1 
    20   18   11 1 
@<TRIPOS>SUBSTRUCTURE
1 MOL         1
@<TRIPOS>MOLECULE
query molecule
   18    20     1     0     0
SMALL
NO_CHARGE

@<TRIPOS>ATOM
      1 C4         76.3453   46.2588    8.6692 C.ar      1 MOL     0.0725
      2 C5         76.3626   47.1060    9.7800 C.ar      1 MOL     0.0009
      3 C6         75.2814   47.9543   10.0209 C.ar      1 MOL     0.0187
      4 C7         73.0848   48.8168    9.3868 C.2       1 MOL    -0.0112
      5 C8         72.9559   50.0142    8.7470 C.2       1 MOL     0.0163
      6 C10        72.0513   48.5324   10.2001 C.2       1 MOL     0.0538
      7 N12        77.3672   45.4210    8.4304 N.ar      1 MOL    -0.2334
      8 C13        78.4412   45.3706    9.2469 C.ar      1 MOL     0.1153
      9 C15        77.4593   47.0839   10.6420 C.ar      1 MOL     0.0138
     10 C14        78.5146   46.2043   10.3707 C.ar      1 MOL     0.0445
     11 N16        79.4435   44.5379    8.9665 N.pl3     1 MOL    -0.3432
     12 C3         75.2466   46.2674    7.8110 C.ar      1 MOL     0.0295
     13 C2         74.1672   47.1219    8.0484 C.ar      1 MOL     0.0108
     14 C1         74.1821   47.9827    9.1469 C.ar      1 MOL    -0.0171
     15 C11        71.8714   50.7626    9.0033 C.2       1 MOL     0.0459
     16 S9         70.9836   49.8604   10.0980 S.3       1 MOL    -0.1054
     17 H161       79.4619   44.0493    8.0827 H         1 MOL     0.1442
     18 H162       80.1845   44.3954    9.6378 H         1 MOL     0.1442
@<TRIPOS>BOND
     1    2    1 ar
     2    1    7 ar
     3    1   12 ar
     4    3    2 ar
     5    2    9 ar
     6   14    3 ar
     7    4    5 1 
     8    4    6 2 
     9    4   14 1 
    10    5   15 2 
    11    6   16 1 
    12    7    8 ar
    13    8   10 ar
    14    8   11 1 
    15    9   10 ar
    16   12   13 ar
    17   13   14 ar
    18   15   16 1 
    19   17   11 1 
    20   18   11 1 
@<TRIPOS>SUBSTRUCTURE
1 MOL         1
@<TRIPOS>MOLECULE
query molecule
   18    20     1     0     0
SMALL
NO_CHARGE

@<TRIPOS>ATOM
      1 C4         76.3478   46.2606    8.6718 C.ar      1 MOL     0.0725
      2 C5         76.3745   47.1053    9.7844 C.ar      1 MOL     0.0009
      3 C6         75.3006   47.9615   10.0298 C.ar      1 MOL     0.0187
      4 C7         73.1092   48.8426    9.4030 C.2       1 MOL    -0.0112
      5 C8         72.9209   49.9813    8.6766 C.2       1 MOL     0.0163
      6 C10        72.1370   48.6186   10.3058 C.2       1 MOL     0.0538
      7 N12        77.3625   45.4153    8.4287 N.ar      1 MOL    -0.2334
      8 C13        78.4381   45.3548    9.2425 C.ar      1 MOL     0.1153
      9 C15        77.4731   47.0727   10.6435 C.ar      1 MOL     0.0138
     10 C14        78.5208   46.1855   10.3677 C.ar      1 MOL     0.0445
     11 N16        79.4330   44.5148    8.9578 N.pl3     1 MOL    -0.3432
     12 C3         75.2470   46.2796    7.8164 C.ar      1 MOL     0.0295
     13 C2         74.1749   47.1421    8.0584 C.ar      1 MOL     0.0108
     14 C1         74.1994   48.0004    9.1586 C.ar      1 MOL    -0.0171
     15 C11        71.8459   50.7395    8.9435 C.2       1 MOL     0.0459
     16 S9         71.0465   49.9246   10.1673 S.3       1 MOL    -0.1054
     17 H161       79.5152   43.6412    9.4579 H         1 MOL     0.1442
     18 H162       80.1048   44.7519    8.2418 H         1 MOL     0.1442
@<TRIPOS>BOND
     1    2    1 ar
     2    1    7 ar
     3    1   12 ar
     4    3    2 ar
     5    2    9 ar
     6   14    3 ar
     7    4    5 1 
     8    4    6 2 
     9    4   14 1 
    10    5   15 2 
    11    6   16 1 
    12    7    8 ar
    13    8   10 ar
    14    8   11 1 
    15    9   10 ar
    16   12   13 ar
    17   13   14 ar
    18   15   16 1 
    19   17   11 1 
    20   18   11 1 
@<TRIPOS>SUBSTRUCTURE
1 MOL         1
@<TRIPOS>MOLECULE
query molecule
   18    20     1     0     0
SMALL
NO_CHARGE

@<TRIPOS>ATOM
      1 C4         64.0435   48.1745   13.9472 C.ar      1 MOL     0.0725
      2 C5         64.2055   46.7868   13.9560 C.ar      1 MOL     0.0009
      3 C6         63.8863   46.0450   12.8183 C.ar      1 MOL     0.0187
      4 C7         63.0749   45.9441   10.5155 C.2       1 MOL    -0.0112
      5 C8         64.0579   45.4566    9.7057 C.2       1 MOL     0.0163
      6 C10        61.8359   45.6090   10.1117 C.2       1 MOL     0.0538
      7 N12        64.3632   48.9085   15.0252 N.ar      1 MOL    -0.2334
      8 C13        64.8453   48.3357   16.1487 C.ar      1 MOL     0.1153
      9 C15        64.6963   46.1612   15.1023 C.ar      1 MOL     0.0138
     10 C14        65.0196   46.9471   16.2153 C.ar      1 MOL     0.0445
     11 N16        65.1347   49.0966   17.2041 N.pl3     1 MOL    -0.3432
     12 C3         63.5651   48.8067   12.8004 C.ar      1 MOL     0.0295
     13 C2         63.2389   48.0631   11.6636 C.ar      1 MOL     0.0108
     14 C1         63.3829   46.6749   11.6680 C.ar      1 MOL    -0.0171
     15 C11        63.7016   44.7459    8.6242 C.2       1 MOL     0.0459
     16 S9         62.0298   44.6962    8.6824 S.3       1 MOL    -0.1054
     17 H161       66.0827   49.1414   17.5496 H         1 MOL     0.1442
     18 H162       64.4061   49.6285   17.6582 H         1 MOL     0.1442
@<TRIPOS>BOND
     1    2    1 ar
     2    1    7 ar
     3    1   12 ar
     4    3    2 ar
     5    2    9 ar
     6   14    3 ar
     7    4    5 1 
     8    4    6 2 
     9    4   14 1 
    10    5   15 2 
    11    6   16 1 
    12    7    8 ar
    13    8   10 ar
    14    8   11 1 
    15    9   10 ar
    16   12   13 ar
    17   13   14 ar
    18   15   16 1 
    19   17   11 1 
    20   18   11 1 
@<TRIPOS>SUBSTRUCTURE
1 MOL         1
@<TRIPOS>MOLECULE
query molecule
   18    20     1     0     0
SMALL
NO_CHARGE

@<TRIPOS>ATOM
      1 C4         64.0226   48.1736   13.9552 C.ar      1 MOL     0.0725
      2 C5         64.1058   46.7790   13.9592 C.ar      1 MOL     0.0009
      3 C6         63.7710   46.0619   12.8102 C.ar      1 MOL     0.0187
      4 C7         63.0075   46.0179   10.4893 C.2       1 MOL    -0.0112
      5 C8         63.9730   45.4083    9.7438 C.2       1 MOL     0.0163
      6 C10        61.7638   45.8228   10.0143 C.2       1 MOL     0.0538
      7 N12        64.3588   48.8833   15.0445 N.ar      1 MOL    -0.2334
      8 C13        64.7823   48.2788   16.1749 C.ar      1 MOL     0.1153
      9 C15        64.5346   46.1212   15.1123 C.ar      1 MOL     0.0138
     10 C14        64.8765   46.8822   16.2370 C.ar      1 MOL     0.0445
     11 N16        65.0904   49.0171   17.2410 N.pl3     1 MOL    -0.3432
     12 C3         63.6066   48.8374   12.8019 C.ar      1 MOL     0.0295
     13 C2         63.2648   48.1188   11.6536 C.ar      1 MOL     0.0108
     14 C1         63.3301   46.7247   11.6528 C.ar      1 MOL    -0.0171
     15 C11        63.6006   44.7282    8.6481 C.2       1 MOL     0.0459
     16 S9         61.9339   44.8732    8.6060 S.3       1 MOL    -0.1054
     17 H161       64.4603   49.0530   18.0296 H         1 MOL     0.1442
     18 H162       65.9539   49.5406   17.2603 H         1 MOL     0.1442
@<TRIPOS>BOND
     1    2    1 ar
     2    1    7 ar
     3    1   12 ar
     4    3    2 ar
     5    2    9 ar
     6   14    3 ar
     7    4    5 1 
     8    4    6 2 
     9    4   14 1 
    10    5   15 2 
    11    6   16 1 
    12    7    8 ar
    13    8   10 ar
    14    8   11 1 
    15    9   10 ar
    16   12   13 ar
    17   13   14 ar
    18   15   16 1 
    19   17   11 1 
    20   18   11 1 
@<TRIPOS>SUBSTRUCTURE
1 MOL         1
@<TRIPOS>MOLECULE
query molecule
   18    20     1     0     0
SMALL
NO_CHARGE

@<TRIPOS>ATOM
      1 C4         64.0227   48.1736   13.9552 C.ar      1 MOL     0.0725
      2 C5         64.1058   46.7790   13.9593 C.ar      1 MOL     0.0009
      3 C6         63.7706   46.0618   12.8104 C.ar      1 MOL     0.0187
      4 C7         63.0064   46.0177   10.4898 C.2       1 MOL    -0.0112
      5 C8         63.9716   45.4080    9.7440 C.2       1 MOL     0.0163
      6 C10        61.7625   45.8227   10.0152 C.2       1 MOL     0.0538
      7 N12        64.3593   48.8834   15.0443 N.ar      1 MOL    -0.2334
      8 C13        64.7831   48.2789   16.1747 C.ar      1 MOL     0.1153
      9 C15        64.5349   46.1213   15.1124 C.ar      1 MOL     0.0138
     10 C14        64.8772   46.8824   16.2368 C.ar      1 MOL     0.0445
     11 N16        65.0915   49.0173   17.2406 N.pl3     1 MOL    -0.3432
     12 C3         63.6064   48.8373   12.8019 C.ar      1 MOL     0.0295
     13 C2         63.2642   48.1187   11.6538 C.ar      1 MOL     0.0108
     14 C1         63.3294   46.7246   11.6532 C.ar      1 MOL    -0.0171
     15 C11        63.5988   44.7278    8.6485 C.2       1 MOL     0.0459
     16 S9         61.9322   44.8730    8.6069 S.3       1 MOL    -0.1054
     17 H161       65.9326   48.8217   17.7643 H         1 MOL     0.1442
     18 H162       64.4840   49.7725   17.5247 H         1 MOL     0.1442
@<TRIPOS>BOND
     1    2    1 ar
     2    1    7 ar
     3    1   12 ar
     4    3    2 ar
     5    2    9 ar
     6   14    3 ar
     7    4    5 1 
     8    4    6 2 
     9    4   14 1 
    10    5   15 2 
    11    6   16 1 
    12    7    8 ar
    13    8   10 ar
    14    8   11 1 
    15    9   10 ar
    16   12   13 ar
    17   13   14 ar
    18   15   16 1 
    19   17   11 1 
    20   18   11 1 
@<TRIPOS>SUBSTRUCTURE
1 MOL         1
@<TRIPOS>MOLECULE
query molecule
   18    20     1     0     0
SMALL
NO_CHARGE

@<TRIPOS>ATOM
      1 C4         69.7428   51.6859   11.9348 C.ar      1 MOL     0.0725
      2 C5         68.7928   51.5656   12.9520 C.ar      1 MOL     0.0009
      3 C6         67.4364   51.5104   12.6300 C.ar      1 MOL     0.0187
      4 C7         65.6553   51.5249   10.9570 C.2       1 MOL    -0.0112
      5 C8         64.9135   50.4178   11.2466 C.2       1 MOL     0.0163
      6 C10        64.9423   52.5088   10.3789 C.2       1 MOL     0.0538
      7 N12        71.0540   51.7212   12.2223 N.ar      1 MOL    -0.2334
      8 C13        71.4973   51.6460   13.4953 C.ar      1 MOL     0.1153
      9 C15        69.2156   51.4907   14.2794 C.ar      1 MOL     0.0138
     10 C14        70.5878   51.5329   14.5551 C.ar      1 MOL     0.0445
     11 N16        72.8061   51.7019   13.7414 N.pl3     1 MOL    -0.3432
     12 C3         69.3271   51.7487   10.6055 C.ar      1 MOL     0.0295
     13 C2         67.9685   51.7005   10.2835 C.ar      1 MOL     0.0108
     14 C1         67.0114   51.5957   11.2939 C.ar      1 MOL    -0.0171
     15 C11        63.6124   50.4157   10.9165 C.2       1 MOL     0.0459
     16 S9         63.3483   51.9173   10.2265 S.3       1 MOL    -0.1054
     17 H161       73.4387   51.0845   13.2528 H         1 MOL     0.1442
     18 H162       73.1653   52.3616   14.4166 H         1 MOL     0.1442
@<TRIPOS>BOND
     1    2    1 ar
     2    1    7 ar
     3    1   12 ar
     4    3    2 ar
     5    2    9 ar
     6   14    3 ar
     7    4    5 1 
     8    4    6 2 
     9    4   14 1 
    10    5   15 2 
    11    6   16 1 
    12    7    8 ar
    13    8   10 ar
    14    8   11 1 
    15    9   10 ar
    16   12   13 ar
    17   13   14 ar
    18   15   16 1 
    19   17   11 1 
    20   18   11 1 
@<TRIPOS>SUBSTRUCTURE
1 MOL         1
@<TRIPOS>MOLECULE
query molecule
   18    20     1     0     0
SMALL
NO_CHARGE

@<TRIPOS>ATOM
      1 C4         69.7428   51.6857   11.9347 C.ar      1 MOL     0.0725
      2 C5         68.7926   51.5650   12.9518 C.ar      1 MOL     0.0009
      3 C6         67.4363   51.5100   12.6296 C.ar      1 MOL     0.0187
      4 C7         65.6554   51.5250   10.9563 C.2       1 MOL    -0.0112
      5 C8         64.9135   50.4179   11.2455 C.2       1 MOL     0.0163
      6 C10        64.9426   52.5091   10.3784 C.2       1 MOL     0.0538
      7 N12        71.0539   51.7209   12.2225 N.ar      1 MOL    -0.2334
      8 C13        71.4971   51.6452   13.4956 C.ar      1 MOL     0.1153
      9 C15        69.2152   51.4897   14.2792 C.ar      1 MOL     0.0138
     10 C14        70.5874   51.5318   14.5551 C.ar      1 MOL     0.0445
     11 N16        72.8058   51.7010   13.7419 N.pl3     1 MOL    -0.3432
     12 C3         69.3273   51.7490   10.6054 C.ar      1 MOL     0.0295
     13 C2         67.9687   51.7009   10.2833 C.ar      1 MOL     0.0108
     14 C1         67.0114   51.5957   11.2934 C.ar      1 MOL    -0.0171
     15 C11        63.6125   50.4160   10.9152 C.2       1 MOL     0.0459
     16 S9         63.3486   51.9177   10.2256 S.3       1 MOL    -0.1054
     17 H161       73.3221   50.8522   13.9238 H         1 MOL     0.1442
     18 H162       73.2812   52.5921   13.7466 H         1 MOL     0.1442
@<TRIPOS>BOND
     1    2    1 ar
     2    1    7 ar
     3    1   12 ar
     4    3    2 ar
     5    2    9 ar
     6   14    3 ar
     7    4    5 1 
     8    4    6 2 
     9    4   14 1 
    10    5   15 2 
    11    6   16 1 
    12    7    8 ar
    13    8   10 ar
    14    8   11 1 
    15    9   10 ar
    16   12   13 ar
    17   13   14 ar
    18   15   16 1 
    19   17   11 1 
    20   18   11 1 
@<TRIPOS>SUBSTRUCTURE
1 MOL         1
@<TRIPOS>MOLECULE
query molecule
   18    20     1     0     0
SMALL
NO_CHARGE

@<TRIPOS>ATOM
      1 C4         69.2535   52.1353   11.7463 C.ar      1 MOL     0.0725
      2 C5         68.3007   51.9198   12.7452 C.ar      1 MOL     0.0009
      3 C6         66.9447   51.9042   12.4171 C.ar      1 MOL     0.0187
      4 C7         65.1672   52.0940   10.7510 C.2       1 MOL    -0.0112
      5 C8         64.4894   50.9145   10.6556 C.2       1 MOL     0.0163
      6 C10        64.3943   53.1730   10.5302 C.2       1 MOL     0.0538
      7 N12        70.5642   52.1347   12.0380 N.ar      1 MOL    -0.2334
      8 C13        71.0045   51.9313   13.2980 C.ar      1 MOL     0.1153
      9 C15        68.7203   51.7114   14.0592 C.ar      1 MOL     0.0138
     10 C14        70.0922   51.7187   14.3399 C.ar      1 MOL     0.0445
     11 N16        72.3131   51.9554   13.5504 N.pl3     1 MOL    -0.3432
     12 C3         68.8409   52.3317   10.4292 C.ar      1 MOL     0.0295
     13 C2         67.4828   52.3230   10.1019 C.ar      1 MOL     0.0108
     14 C1         66.5229   52.1238   11.0954 C.ar      1 MOL    -0.0171
     15 C11        63.1851   50.9503   10.3406 C.2       1 MOL     0.0459
     16 S9         62.8314   52.5787   10.1868 S.3       1 MOL    -0.1054
     17 H161       72.7619   52.8229   13.8075 H         1 MOL     0.1442
     18 H162       72.8557   51.1062   13.4847 H         1 MOL     0.1442
@<TRIPOS>BOND
     1    2    1 ar
     2    1    7 ar
     3    1   12 ar
     4    3    2 ar
     5    2    9 ar
     6   14    3 ar
     7    4    5 1 
     8    4    6 2 
     9    4   14 1 
    10    5   15 2 
    11    6   16 1 
    12    7    8 ar
    13    8   10 ar
    14    8   11 1 
    15    9   10 ar
    16   12   13 ar
    17   13   14 ar
    18   15   16 1 
    19   17   11 1 
    20   18   11 1 
@<TRIPOS>SUBSTRUCTURE
1 MOL         1
@<TRIPOS>MOLECULE
query molecule
   18    20     1     0     0
SMALL
NO_CHARGE

@<TRIPOS>ATOM
      1 C4         64.8380   47.2435    8.2665 C.ar      1 MOL     0.0725
      2 C5         64.7931   48.1641    9.3165 C.ar      1 MOL     0.0009
      3 C6         64.0426   47.8776   10.4572 C.ar      1 MOL     0.0187
      4 C7         62.5699   46.3753   11.7005 C.2       1 MOL    -0.0112
      5 C8         63.1661   45.8472   12.8075 C.2       1 MOL     0.0163
      6 C10        61.2524   46.5977   11.8587 C.2       1 MOL     0.0538
      7 N12        65.5699   47.4917    7.1684 N.ar      1 MOL    -0.2334
      8 C13        66.2799   48.6328    7.0392 C.ar      1 MOL     0.1153
      9 C15        65.5106   49.3562    9.2141 C.ar      1 MOL     0.0138
     10 C14        66.2639   49.5945    8.0580 C.ar      1 MOL     0.0445
     11 N16        66.9803   48.8503    5.9262 N.pl3     1 MOL    -0.3432
     12 C3         64.1330   46.0450    8.3682 C.ar      1 MOL     0.0295
     13 C2         63.3760   45.7613    9.5076 C.ar      1 MOL     0.0108
     14 C1         63.3128   46.6814   10.5551 C.ar      1 MOL    -0.0171
     15 C11        62.4050   45.5923   13.8834 C.2       1 MOL     0.0459
     16 S9         60.8670   46.0798   13.4390 S.3       1 MOL    -0.1054
     17 H161       66.7007   48.4128    5.0599 H         1 MOL     0.1442
     18 H162       67.7906   49.4527    5.9492 H         1 MOL     0.1442
@<TRIPOS>BOND
     1    2    1 ar
     2    1    7 ar
     3    1   12 ar
     4    3    2 ar
     5    2    9 ar
     6   14    3 ar
     7    4    5 1 
     8    4    6 2 
     9    4   14 1 
    10    5   15 2 
    11    6   16 1 
    12    7    8 ar
    13    8   10 ar
    14    8   11 1 
    15    9   10 ar
    16   12   13 ar
    17   13   14 ar
    18   15   16 1 
    19   17   11 1 
    20   18   11 1 
@<TRIPOS>SUBSTRUCTURE
1 MOL         1
@<TRIPOS>MOLECULE
query molecule
   18    20     1     0     0
SMALL
NO_CHARGE

@<TRIPOS>ATOM
      1 C4         64.5587   47.2317    8.4173 C.ar      1 MOL     0.0725
      2 C5         64.5094   48.1621    9.4585 C.ar      1 MOL     0.0009
      3 C6         63.7737   47.8758   10.6088 C.ar      1 MOL     0.0187
      4 C7         62.3350   46.3643   11.8803 C.2       1 MOL    -0.0112
      5 C8         62.9360   45.7896   12.9611 C.2       1 MOL     0.0163
      6 C10        61.0303   46.6303   12.0739 C.2       1 MOL     0.0538
      7 N12        65.2768   47.4798    7.3101 N.ar      1 MOL    -0.2334
      8 C13        65.9684   48.6299    7.1631 C.ar      1 MOL     0.1153
      9 C15        65.2081   49.3636    9.3377 C.ar      1 MOL     0.0138
     10 C14        65.9472   49.6015    8.1724 C.ar      1 MOL     0.0445
     11 N16        66.6554   48.8467    6.0416 N.pl3     1 MOL    -0.3432
     12 C3         63.8727   46.0239    8.5373 C.ar      1 MOL     0.0295
     13 C2         63.1303   45.7404    9.6863 C.ar      1 MOL     0.0108
     14 C1         63.0628   46.6699   10.7252 C.ar      1 MOL    -0.0171
     15 C11        62.1903   45.5374   14.0484 C.2       1 MOL     0.0459
     16 S9         60.6616   46.0901   13.6506 S.3       1 MOL    -0.1054
     17 H161       66.3327   49.5350    5.3767 H         1 MOL     0.1442
     18 H162       67.4988   48.3227    5.8568 H         1 MOL     0.1442
@<TRIPOS>BOND
     1    2    1 ar
     2    1    7 ar
     3    1   12 ar
     4    3    2 ar
     5    2    9 ar
     6   14    3 ar
     7    4    5 1 
     8    4    6 2 
     9    4   14 1 
    10    5   15 2 
    11    6   16 1 
    12    7    8 ar
    13    8   10 ar
    14    8   11 1 
    15    9   10 ar
    16   12   13 ar
    17   13   14 ar
    18   15   16 1 
    19   17   11 1 
    20   18   11 1 
@<TRIPOS>SUBSTRUCTURE
1 MOL         1
@<TRIPOS>MOLECULE
query molecule
   18    20     1     0     0
SMALL
NO_CHARGE

@<TRIPOS>ATOM
      1 C4         64.8380   47.2431    8.2666 C.ar      1 MOL     0.0725
      2 C5         64.7940   48.1643    9.3161 C.ar      1 MOL     0.0009
      3 C6         64.0431   47.8792   10.4569 C.ar      1 MOL     0.0187
      4 C7         62.5687   46.3792   11.7008 C.2       1 MOL    -0.0112
      5 C8         63.1641   45.8511   12.8082 C.2       1 MOL     0.0163
      6 C10        61.2513   46.6031   11.8588 C.2       1 MOL     0.0538
      7 N12        65.5703   47.4899    7.1684 N.ar      1 MOL    -0.2334
      8 C13        66.2815   48.6301    7.0386 C.ar      1 MOL     0.1153
      9 C15        65.5127   49.3556    9.2131 C.ar      1 MOL     0.0138
     10 C14        66.2664   49.5924    8.0569 C.ar      1 MOL     0.0445
     11 N16        66.9823   48.8462    5.9256 N.pl3     1 MOL    -0.3432
     12 C3         64.1318   46.0453    8.3689 C.ar      1 MOL     0.0295
     13 C2         63.3743   45.7630    9.5084 C.ar      1 MOL     0.0108
     14 C1         63.3119   46.6839   10.5553 C.ar      1 MOL    -0.0171
     15 C11        62.4027   45.5977   13.8841 C.2       1 MOL     0.0459
     16 S9         60.8652   46.0865   13.4393 S.3       1 MOL    -0.1054
     17 H161       66.7410   49.6165    5.3185 H         1 MOL     0.1442
     18 H162       67.7546   48.2398    5.6894 H         1 MOL     0.1442
@<TRIPOS>BOND
     1    2    1 ar
     2    1    7 ar
     3    1   12 ar
     4    3    2 ar
     5    2    9 ar
     6   14    3 ar
     7    4    5 1 
     8    4    6 2 
     9    4   14 1 
    10    5   15 2 
    11    6   16 1 
    12    7    8 ar
    13    8   10 ar
    14    8   11 1 
    15    9   10 ar
    16   12   13 ar
    17   13   14 ar
    18   15   16 1 
    19   17   11 1 
    20   18   11 1 
@<TRIPOS>SUBSTRUCTURE
1 MOL         1
@<TRIPOS>MOLECULE
query molecule
   18    20     1     0     0
SMALL
NO_CHARGE

@<TRIPOS>ATOM
      1 C4         68.6422   49.4536    8.6154 C.ar      1 MOL     0.0725
      2 C5         67.3734   49.8470    9.0484 C.ar      1 MOL     0.0009
      3 C6         67.1822   51.1330    9.5545 C.ar      1 MOL     0.0187
      4 C7         68.0738   53.3304   10.1443 C.2       1 MOL    -0.0112
      5 C8         68.5911   54.4102    9.4914 C.2       1 MOL     0.0163
      6 C10        67.3615   53.6586   11.2376 C.2       1 MOL     0.0538
      7 N12        68.8431   48.2270    8.1072 N.ar      1 MOL    -0.2334
      8 C13        67.8346   47.3357    8.0009 C.ar      1 MOL     0.1153
      9 C15        66.3094   48.9492    8.9580 C.ar      1 MOL     0.0138
     10 C14        66.5438   47.6745    8.4278 C.ar      1 MOL     0.0445
     11 N16        68.0777   46.1218    7.5070 N.pl3     1 MOL    -0.3432
     12 C3         69.7068   50.3505    8.6916 C.ar      1 MOL     0.0295
     13 C2         69.5167   51.6359    9.2049 C.ar      1 MOL     0.0108
     14 C1         68.2563   52.0327    9.6540 C.ar      1 MOL    -0.0171
     15 C11        68.3666   55.6322    9.9993 C.2       1 MOL     0.0459
     16 S9         67.4314   55.3598   11.3601 S.3       1 MOL    -0.1054
     17 H161       68.2522   45.3479    8.1321 H         1 MOL     0.1442
     18 H162       68.0873   45.9758    6.5077 H         1 MOL     0.1442
@<TRIPOS>BOND
     1    2    1 ar
     2    1    7 ar
     3    1   12 ar
     4    3    2 ar
     5    2    9 ar
     6   14    3 ar
     7    4    5 1 
     8    4    6 2 
     9    4   14 1 
    10    5   15 2 
    11    6   16 1 
    12    7    8 ar
    13    8   10 ar
    14    8   11 1 
    15    9   10 ar
    16   12   13 ar
    17   13   14 ar
    18   15   16 1 
    19   17   11 1 
    20   18   11 1 
@<TRIPOS>SUBSTRUCTURE
1 MOL         1
@<TRIPOS>MOLECULE
query molecule
   18    20     1     0     0
SMALL
NO_CHARGE

@<TRIPOS>ATOM
      1 C4         68.6418   49.4537    8.6150 C.ar      1 MOL     0.0725
      2 C5         67.3723   49.8455    9.0472 C.ar      1 MOL     0.0009
      3 C6         67.1792   51.1312    9.5532 C.ar      1 MOL     0.0187
      4 C7         68.0678   53.3297   10.1435 C.2       1 MOL    -0.0112
      5 C8         68.6971   54.3958    9.5716 C.2       1 MOL     0.0163
      6 C10        67.2515   53.6726   11.1568 C.2       1 MOL     0.0538
      7 N12        68.8445   48.2273    8.1069 N.ar      1 MOL    -0.2334
      8 C13        67.8371   47.3348    8.0000 C.ar      1 MOL     0.1153
      9 C15        66.3095   48.9464    8.9562 C.ar      1 MOL     0.0138
     10 C14        66.5457   47.6720    8.4261 C.ar      1 MOL     0.0445
     11 N16        68.0820   46.1211    7.5063 N.pl3     1 MOL    -0.3432
     12 C3         69.7053   50.3519    8.6919 C.ar      1 MOL     0.0295
     13 C2         69.5133   51.6370    9.2050 C.ar      1 MOL     0.0108
     14 C1         68.2521   52.0323    9.6534 C.ar      1 MOL    -0.0171
     15 C11        68.4661   55.6192   10.0732 C.2       1 MOL     0.0459
     16 S9         67.3748   55.3676   11.3167 S.3       1 MOL    -0.1054
     17 H161       67.4530   45.7154    6.8282 H         1 MOL     0.1442
     18 H162       68.8966   45.6073    7.8102 H         1 MOL     0.1442
@<TRIPOS>BOND
     1    2    1 ar
     2    1    7 ar
     3    1   12 ar
     4    3    2 ar
     5    2    9 ar
     6   14    3 ar
     7    4    5 1 
     8    4    6 2 
     9    4   14 1 
    10    5   15 2 
    11    6   16 1 
    12    7    8 ar
    13    8   10 ar
    14    8   11 1 
    15    9   10 ar
    16   12   13 ar
    17   13   14 ar
    18   15   16 1 
    19   17   11 1 
    20   18   11 1 
@<TRIPOS>SUBSTRUCTURE
1 MOL         1
@<TRIPOS>MOLECULE
query molecule
   18    20     1     0     0
SMALL
NO_CHARGE

@<TRIPOS>ATOM
      1 C4         68.6386   49.4515    8.6092 C.ar      1 MOL     0.0725
      2 C5         67.3648   49.8480    9.0241 C.ar      1 MOL     0.0009
      3 C6         67.1737   51.1272    9.5471 C.ar      1 MOL     0.0187
      4 C7         68.0707   53.3077   10.1892 C.2       1 MOL    -0.0112
      5 C8         68.3072   54.4081    9.4191 C.2       1 MOL     0.0163
      6 C10        67.6174   53.6056   11.4206 C.2       1 MOL     0.0538
      7 N12        68.8398   48.2316    8.0852 N.ar      1 MOL    -0.2334
      8 C13        67.8268   47.3501    7.9453 C.ar      1 MOL     0.1153
      9 C15        66.2959   48.9602    8.8989 C.ar      1 MOL     0.0138
     10 C14        66.5307   47.6924    8.3528 C.ar      1 MOL     0.0445
     11 N16        68.0701   46.1423    7.4367 N.pl3     1 MOL    -0.3432
     12 C3         69.7085   50.3385    8.7203 C.ar      1 MOL     0.0295
     13 C2         69.5184   51.6170    9.2504 C.ar      1 MOL     0.0108
     14 C1         68.2526   52.0167    9.6817 C.ar      1 MOL    -0.0171
     15 C11        68.0962   55.6207    9.9547 C.2       1 MOL     0.0459
     16 S9         67.5507   55.3091   11.5058 S.3       1 MOL    -0.1054
     17 H161       67.4502   45.7533    6.7407 H         1 MOL     0.1442
     18 H162       68.8743   45.6162    7.7474 H         1 MOL     0.1442
@<TRIPOS>BOND
     1    2    1 ar
     2    1    7 ar
     3    1   12 ar
     4    3    2 ar
     5    2    9 ar
     6   14    3 ar
     7    4    5 1 
     8    4    6 2 
     9    4   14 1 
    10    5   15 2 
    11    6   16 1 
    12    7    8 ar
    13    8   10 ar
    14    8   11 1 
    15    9   10 ar
    16   12   13 ar
    17   13   14 ar
    18   15   16 1 
    19   17   11 1 
    20   18   11 1 
@<TRIPOS>SUBSTRUCTURE
1 MOL         1
@<TRIPOS>MOLECULE
query molecule
   18    20     1     0     0
SMALL
NO_CHARGE

@<TRIPOS>ATOM
      1 C4         70.4164   49.8739   11.5408 C.ar      1 MOL     0.0725
      2 C5         69.7392   49.2119   10.5137 C.ar      1 MOL     0.0009
      3 C6         68.3830   49.4631   10.3038 C.ar      1 MOL     0.0187
      4 C7         66.3268   50.6328   10.9166 C.2       1 MOL    -0.0112
      5 C8         65.4003   49.6323   10.9001 C.2       1 MOL     0.0163
      6 C10        65.7923   51.8577   10.7601 C.2       1 MOL     0.0538
      7 N12        71.7260   49.6607   11.7470 N.ar      1 MOL    -0.2334
      8 C13        72.4288   48.8025   10.9773 C.ar      1 MOL     0.1153
      9 C15        70.4335   48.3140    9.7024 C.ar      1 MOL     0.0138
     10 C14        71.7978   48.1054    9.9386 C.ar      1 MOL     0.0445
     11 N16        73.7236   48.6048   11.2245 N.pl3     1 MOL    -0.3432
     12 C3         69.7309   50.7816   12.3470 C.ar      1 MOL     0.0295
     13 C2         68.3712   51.0280   12.1412 C.ar      1 MOL     0.0108
     14 C1         67.6828   50.3600   11.1274 C.ar      1 MOL    -0.0171
     15 C11        64.1116   49.9573   10.7127 C.2       1 MOL     0.0459
     16 S9         64.1113   51.6253   10.5763 S.3       1 MOL    -0.1054
     17 H161       74.2390   49.2716   11.7810 H         1 MOL     0.1442
     18 H162       74.1891   47.7881   10.8553 H         1 MOL     0.1442
@<TRIPOS>BOND
     1    2    1 ar
     2    1    7 ar
     3    1   12 ar
     4    3    2 ar
     5    2    9 ar
     6   14    3 ar
     7    4    5 1 
     8    4    6 2 
     9    4   14 1 
    10    5   15 2 
    11    6   16 1 
    12    7    8 ar
    13    8   10 ar
    14    8   11 1 
    15    9   10 ar
    16   12   13 ar
    17   13   14 ar
    18   15   16 1 
    19   17   11 1 
    20   18   11 1 
@<TRIPOS>SUBSTRUCTURE
1 MOL         1
@<TRIPOS>MOLECULE
query molecule
   18    20     1     0     0
SMALL
NO_CHARGE

@<TRIPOS>ATOM
      1 C4         70.5682   50.1853   11.7797 C.ar      1 MOL     0.0725
      2 C5         69.9530   49.5334   10.7080 C.ar      1 MOL     0.0009
      3 C6         68.5859   49.7026   10.4870 C.ar      1 MOL     0.0187
      4 C7         66.4456   50.6962   11.1219 C.2       1 MOL    -0.0112
      5 C8         65.5125   50.0836   11.9054 C.2       1 MOL     0.0163
      6 C10        65.9109   51.5038   10.1878 C.2       1 MOL     0.0538
      7 N12        71.8863   50.0511   11.9980 N.ar      1 MOL    -0.2334
      8 C13        72.6574   49.2840   11.1982 C.ar      1 MOL     0.1153
      9 C15        70.7189   48.7284    9.8644 C.ar      1 MOL     0.0138
     10 C14        72.0909   48.6009   10.1140 C.ar      1 MOL     0.0445
     11 N16        73.9590   49.1620   11.4581 N.pl3     1 MOL    -0.3432
     12 C3         69.8105   51.0010   12.6189 C.ar      1 MOL     0.0295
     13 C2         68.4402   51.1648   12.4016 C.ar      1 MOL     0.0108
     14 C1         67.8139   50.5055   11.3428 C.ar      1 MOL    -0.0171
     15 C11        64.2147   50.3202   11.6577 C.2       1 MOL     0.0459
     16 S9         64.2177   51.3945   10.3745 S.3       1 MOL    -0.1054
     17 H161       74.5561   49.9765   11.4405 H         1 MOL     0.1442
     18 H162       74.3483   48.2551   11.6727 H         1 MOL     0.1442
@<TRIPOS>BOND
     1    2    1 ar
     2    1    7 ar
     3    1   12 ar
     4    3    2 ar
     5    2    9 ar
     6   14    3 ar
     7    4    5 1 
     8    4    6 2 
     9    4   14 1 
    10    5   15 2 
    11    6   16 1 
    12    7    8 ar
    13    8   10 ar
    14    8   11 1 
    15    9   10 ar
    16   12   13 ar
    17   13   14 ar
    18   15   16 1 
    19   17   11 1 
    20   18   11 1 
@<TRIPOS>SUBSTRUCTURE
1 MOL         1
@<TRIPOS>MOLECULE
query molecule
   18    20     1     0     0
SMALL
NO_CHARGE

@<TRIPOS>ATOM
      1 C4         70.5626   49.9661   11.5217 C.ar      1 MOL     0.0725
      2 C5         69.9442   49.2277   10.5096 C.ar      1 MOL     0.0009
      3 C6         68.5989   49.4494   10.2138 C.ar      1 MOL     0.0187
      4 C7         66.5054   50.6362   10.6385 C.2       1 MOL    -0.0112
      5 C8         65.6592   49.6167   10.3157 C.2       1 MOL     0.0163
      6 C10        65.9020   51.8382   10.6785 C.2       1 MOL     0.0538
      7 N12        71.8613   49.7816   11.8087 N.ar      1 MOL    -0.2334
      8 C13        72.6091   48.8802   11.1372 C.ar      1 MOL     0.1153
      9 C15        70.6859   48.2838    9.7989 C.ar      1 MOL     0.0138
     10 C14        72.0377   48.1066   10.1183 C.ar      1 MOL     0.0445
     11 N16        73.8908   48.7139   11.4633 N.pl3     1 MOL    -0.3432
     12 C3         69.8299   50.9196   12.2271 C.ar      1 MOL     0.0295
     13 C2         68.4809   51.1366   11.9356 C.ar      1 MOL     0.0108
     14 C1         67.8506   50.3931   10.9367 C.ar      1 MOL    -0.0171
     15 C11        64.3746   49.9092   10.0585 C.2       1 MOL     0.0459
     16 S9         64.2678   51.5661   10.2674 S.3       1 MOL    -0.1054
     17 H161       74.3720   49.4229   11.9979 H         1 MOL     0.1442
     18 H162       74.3807   47.8788   11.1757 H         1 MOL     0.1442
@<TRIPOS>BOND
     1    2    1 ar
     2    1    7 ar
     3    1   12 ar
     4    3    2 ar
     5    2    9 ar
     6   14    3 ar
     7    4    5 1 
     8    4    6 2 
     9    4   14 1 
    10    5   15 2 
    11    6   16 1 
    12    7    8 ar
    13    8   10 ar
    14    8   11 1 
    15    9   10 ar
    16   12   13 ar
    17   13   14 ar
    18   15   16 1 
    19   17   11 1 
    20   18   11 1 
@<TRIPOS>SUBSTRUCTURE
1 MOL         1
@<TRIPOS>MOLECULE
query molecule
   18    20     1     0     0
SMALL
NO_CHARGE

@<TRIPOS>ATOM
      1 C4         66.2954   48.2381    7.9248 C.ar      1 MOL     0.0725
      2 C5         65.8208   48.4894    9.2146 C.ar      1 MOL     0.0009
      3 C6         66.4161   49.4848    9.9899 C.ar      1 MOL     0.0187
      4 C7         68.0978   51.2374   10.2583 C.2       1 MOL    -0.0112
      5 C8         68.7023   50.9612   11.4492 C.2       1 MOL     0.0163
      6 C10        68.1835   52.5326    9.9040 C.2       1 MOL     0.0538
      7 N12        65.7237   47.2977    7.1554 N.ar      1 MOL    -0.2334
      8 C13        64.6804   46.5645    7.5988 C.ar      1 MOL     0.1153
      9 C15        64.7474   47.7465    9.7068 C.ar      1 MOL     0.0138
     10 C14        64.1697   46.7689    8.8874 C.ar      1 MOL     0.0445
     11 N16        64.1513   45.6282    6.8114 N.pl3     1 MOL    -0.3432
     12 C3         67.3598   48.9856    7.4227 C.ar      1 MOL     0.0295
     13 C2         67.9603   49.9776    8.2018 C.ar      1 MOL     0.0108
     14 C1         67.5031   50.2254    9.4969 C.ar      1 MOL    -0.0171
     15 C11        69.2728   51.9704   12.1257 C.2       1 MOL     0.0459
     16 S9         69.0293   53.3169   11.1623 S.3       1 MOL    -0.1054
     17 H161       64.6808   45.2659    6.0314 H         1 MOL     0.1442
     18 H162       63.2207   45.2811    6.9947 H         1 MOL     0.1442
@<TRIPOS>BOND
     1    2    1 ar
     2    1    7 ar
     3    1   12 ar
     4    3    2 ar
     5    2    9 ar
     6   14    3 ar
     7    4    5 1 
     8    4    6 2 
     9    4   14 1 
    10    5   15 2 
    11    6   16 1 
    12    7    8 ar
    13    8   10 ar
    14    8   11 1 
    15    9   10 ar
    16   12   13 ar
    17   13   14 ar
    18   15   16 1 
    19   17   11 1 
    20   18   11 1 
@<TRIPOS>SUBSTRUCTURE
1 MOL         1
@<TRIPOS>MOLECULE
query molecule
   18    20     1     0     0
SMALL
NO_CHARGE

@<TRIPOS>ATOM
      1 C4         66.2953   48.2380    7.9259 C.ar      1 MOL     0.0725
      2 C5         65.8228   48.4937    9.2156 C.ar      1 MOL     0.0009
      3 C6         66.4197   49.4914    9.9868 C.ar      1 MOL     0.0187
      4 C7         68.1025   51.2441   10.2469 C.2       1 MOL    -0.0112
      5 C8         68.7088   50.9716   11.4376 C.2       1 MOL     0.0163
      6 C10        68.1883   52.5381    9.8882 C.2       1 MOL     0.0538
      7 N12        65.7220   47.2953    7.1605 N.ar      1 MOL    -0.2334
      8 C13        64.6791   46.5640    7.6079 C.ar      1 MOL     0.1153
      9 C15        64.7498   47.7529    9.7119 C.ar      1 MOL     0.0138
     10 C14        64.1705   46.7729    8.8966 C.ar      1 MOL     0.0445
     11 N16        64.1483   45.6254    6.8243 N.pl3     1 MOL    -0.3432
     12 C3         67.3592   48.9834    7.4197 C.ar      1 MOL     0.0295
     13 C2         67.9614   49.9777    8.1946 C.ar      1 MOL     0.0108
     14 C1         67.5062   50.2300    9.4896 C.ar      1 MOL    -0.0171
     15 C11        69.2808   51.9828   12.1100 C.2       1 MOL     0.0459
     16 S9         69.0363   53.3263   11.1426 S.3       1 MOL    -0.1054
     17 H161       64.6184   45.3532    5.9729 H         1 MOL     0.1442
     18 H162       63.2760   45.1864    7.0821 H         1 MOL     0.1442
@<TRIPOS>BOND
     1    2    1 ar
     2    1    7 ar
     3    1   12 ar
     4    3    2 ar
     5    2    9 ar
     6   14    3 ar
     7    4    5 1 
     8    4    6 2 
     9    4   14 1 
    10    5   15 2 
    11    6   16 1 
    12    7    8 ar
    13    8   10 ar
    14    8   11 1 
    15    9   10 ar
    16   12   13 ar
    17   13   14 ar
    18   15   16 1 
    19   17   11 1 
    20   18   11 1 
@<TRIPOS>SUBSTRUCTURE
1 MOL         1
@<TRIPOS>MOLECULE
query molecule
   18    20     1     0     0
SMALL
NO_CHARGE

@<TRIPOS>ATOM
      1 C4         66.2950   48.2409    7.9251 C.ar      1 MOL     0.0725
      2 C5         65.8102   48.4994    9.2097 C.ar      1 MOL     0.0009
      3 C6         66.3903   49.5086    9.9788 C.ar      1 MOL     0.0187
      4 C7         68.0513   51.2818   10.2398 C.2       1 MOL    -0.0112
      5 C8         67.2822   52.2200   10.8626 C.2       1 MOL     0.0163
      6 C10        69.3683   51.4320   10.4715 C.2       1 MOL     0.0538
      7 N12        65.7379   47.2870    7.1616 N.ar      1 MOL    -0.2334
      8 C13        64.7000   46.5468    7.6061 C.ar      1 MOL     0.1153
      9 C15        64.7420   47.7497    9.7029 C.ar      1 MOL     0.0138
     10 C14        64.1797   46.7581    8.8897 C.ar      1 MOL     0.0445
     11 N16        64.1856   45.5974    6.8247 N.pl3     1 MOL    -0.3432
     12 C3         67.3541   48.9950    7.4219 C.ar      1 MOL     0.0295
     13 C2         67.9395   50.0009    8.1948 C.ar      1 MOL     0.0108
     14 C1         67.4720   50.2562    9.4848 C.ar      1 MOL    -0.0171
     15 C11        67.8938   53.1685   11.5892 C.2       1 MOL     0.0459
     16 S9         69.5235   52.8071   11.4709 S.3       1 MOL    -0.1054
     17 H161       63.7711   45.8434    5.9372 H         1 MOL     0.1442
     18 H162       64.2103   44.6319    7.1202 H         1 MOL     0.1442
@<TRIPOS>BOND
     1    2    1 ar
     2    1    7 ar
     3    1   12 ar
     4    3    2 ar
     5    2    9 ar
     6   14    3 ar
     7    4    5 1 
     8    4    6 2 
     9    4   14 1 
    10    5   15 2 
    11    6   16 1 
    12    7    8 ar
    13    8   10 ar
    14    8   11 1 
    15    9   10 ar
    16   12   13 ar
    17   13   14 ar
    18   15   16 1 
    19   17   11 1 
    20   18   11 1 
@<TRIPOS>SUBSTRUCTURE
1 MOL         1
@<TRIPOS>MOLECULE
query molecule
   18    20     1     0     0
SMALL
NO_CHARGE

@<TRIPOS>ATOM
      1 C4         71.1278   50.8227   12.9395 C.ar      1 MOL     0.0725
      2 C5         71.1368   50.8122   11.5425 C.ar      1 MOL     0.0009
      3 C6         70.3778   51.7471   10.8379 C.ar      1 MOL     0.0187
      4 C7         68.8339   53.6412   10.8221 C.2       1 MOL    -0.0112
      5 C8         67.5774   53.9812   11.2287 C.2       1 MOL     0.0163
      6 C10        69.2550   54.3380    9.7508 C.2       1 MOL     0.0538
      7 N12        71.8664   49.9438   13.6362 N.ar      1 MOL    -0.2334
      8 C13        72.6351   49.0233   13.0161 C.ar      1 MOL     0.1153
      9 C15        71.9158   49.8709   10.8691 C.ar      1 MOL     0.0138
     10 C14        72.6750   48.9624   11.6168 C.ar      1 MOL     0.0445
     11 N16        73.3406   48.1568   13.7427 N.pl3     1 MOL    -0.3432
     12 C3         70.3610   51.7688   13.6182 C.ar      1 MOL     0.0295
     13 C2         69.5956   52.7006   12.9126 C.ar      1 MOL     0.0108
     14 C1         69.5862   52.6881   11.5170 C.ar      1 MOL    -0.0171
     15 C11        66.9116   54.9165   10.5332 C.2       1 MOL     0.0459
     16 S9         67.9718   55.3798    9.3242 S.3       1 MOL    -0.1054
     17 H161       73.2378   48.1388   14.7473 H         1 MOL     0.1442
     18 H162       73.9779   47.5182   13.2887 H         1 MOL     0.1442
@<TRIPOS>BOND
     1    2    1 ar
     2    1    7 ar
     3    1   12 ar
     4    3    2 ar
     5    2    9 ar
     6   14    3 ar
     7    4    5 1 
     8    4    6 2 
     9    4   14 1 
    10    5   15 2 
    11    6   16 1 
    12    7    8 ar
    13    8   10 ar
    14    8   11 1 
    15    9   10 ar
    16   12   13 ar
    17   13   14 ar
    18   15   16 1 
    19   17   11 1 
    20   18   11 1 
@<TRIPOS>SUBSTRUCTURE
1 MOL         1
@<TRIPOS>MOLECULE
query molecule
   18    20     1     0     0
SMALL
NO_CHARGE

@<TRIPOS>ATOM
      1 C4         71.1778   50.6937   13.4038 C.ar      1 MOL     0.0725
      2 C5         71.2042   50.6780   12.0070 C.ar      1 MOL     0.0009
      3 C6         70.4206   51.5822   11.2893 C.ar      1 MOL     0.0187
      4 C7         68.8096   53.4191   11.2465 C.2       1 MOL    -0.0112
      5 C8         67.5806   53.7996   11.6985 C.2       1 MOL     0.0163
      6 C10        69.1806   54.0477   10.1162 C.2       1 MOL     0.0538
      7 N12        71.9390   49.8448   14.1132 N.ar      1 MOL    -0.2334
      8 C13        72.7480   48.9503   13.5064 C.ar      1 MOL     0.1153
      9 C15        72.0249   49.7629   11.3472 C.ar      1 MOL     0.0138
     10 C14        72.8071   48.8854   12.1081 C.ar      1 MOL     0.0445
     11 N16        73.4753   48.1127   14.2453 N.pl3     1 MOL    -0.3432
     12 C3         70.3691   51.6141   14.0690 C.ar      1 MOL     0.0295
     13 C2         69.5792   52.5148   13.3502 C.ar      1 MOL     0.0108
     14 C1         69.5873   52.4965   11.9547 C.ar      1 MOL    -0.0171
     15 C11        66.8890   54.7030   10.9864 C.2       1 MOL     0.0459
     16 S9         67.8882   55.0816    9.6985 S.3       1 MOL    -0.1054
     17 H161       73.1709   47.8658   15.1761 H         1 MOL     0.1442
     18 H162       74.3309   47.7249   13.8744 H         1 MOL     0.1442
@<TRIPOS>BOND
     1    2    1 ar
     2    1    7 ar
     3    1   12 ar
     4    3    2 ar
     5    2    9 ar
     6   14    3 ar
     7    4    5 1 
     8    4    6 2 
     9    4   14 1 
    10    5   15 2 
    11    6   16 1 
    12    7    8 ar
    13    8   10 ar
    14    8   11 1 
    15    9   10 ar
    16   12   13 ar
    17   13   14 ar
    18   15   16 1 
    19   17   11 1 
    20   18   11 1 
@<TRIPOS>SUBSTRUCTURE
1 MOL         1
@<TRIPOS>MOLECULE
query molecule
   18    20     1     0     0
SMALL
NO_CHARGE

@<TRIPOS>ATOM
      1 C4         71.1771   50.6928   13.4064 C.ar      1 MOL     0.0725
      2 C5         71.2040   50.6801   12.0096 C.ar      1 MOL     0.0009
      3 C6         70.4210   51.5860   11.2936 C.ar      1 MOL     0.0187
      4 C7         68.8108   53.4237   11.2541 C.2       1 MOL    -0.0112
      5 C8         67.5816   53.8036   11.7064 C.2       1 MOL     0.0163
      6 C10        69.1825   54.0546   10.1253 C.2       1 MOL     0.0538
      7 N12        71.9378   49.8422   14.1142 N.ar      1 MOL    -0.2334
      8 C13        72.7466   48.9486   13.5059 C.ar      1 MOL     0.1153
      9 C15        72.0245   49.7660   11.3482 C.ar      1 MOL     0.0138
     10 C14        72.8062   48.8866   12.1074 C.ar      1 MOL     0.0445
     11 N16        73.4733   48.1091   14.2433 N.pl3     1 MOL    -0.3432
     12 C3         70.3686   51.6122   14.0733 C.ar      1 MOL     0.0295
     13 C2         69.5793   52.5147   13.3562 C.ar      1 MOL     0.0108
     14 C1         69.5879   52.4993   11.9606 C.ar      1 MOL    -0.0171
     15 C11        66.8906   54.7088   10.9959 C.2       1 MOL     0.0459
     16 S9         67.8906   55.0899    9.7093 S.3       1 MOL    -0.1054
     17 H161       73.7233   48.3555   15.1903 H         1 MOL     0.1442
     18 H162       73.7741   47.2266   13.8549 H         1 MOL     0.1442
@<TRIPOS>BOND
     1    2    1 ar
     2    1    7 ar
     3    1   12 ar
     4    3    2 ar
     5    2    9 ar
     6   14    3 ar
     7    4    5 1 
     8    4    6 2 
     9    4   14 1 
    10    5   15 2 
    11    6   16 1 
    12    7    8 ar
    13    8   10 ar
    14    8   11 1 
    15    9   10 ar
    16   12   13 ar
    17   13   14 ar
    18   15   16 1 
    19   17   11 1 
    20   18   11 1 
@<TRIPOS>SUBSTRUCTURE
1 MOL         1
