@<TRIPOS>MOLECULE
query molecule
   18    20     1     0     0
SMALL
NO_CHARGE

@<TRIPOS>ATOM
      1 C4         73.2801   40.5057   10.0246 C.ar      1 MOL     0.0725
      2 C5         73.8535   41.7349    9.6893 C.ar      1 MOL     0.0009
      3 C6         75.1141   42.0693   10.1848 C.ar      1 MOL     0.0187
      4 C7         77.0787   41.5093   11.5257 C.2       1 MOL    -0.0112
      5 C8         77.2331   42.2384   12.6678 C.2       1 MOL     0.0163
      6 C10        78.2448   41.1128   10.9840 C.2       1 MOL     0.0538
      7 N12        72.0764   40.1568    9.5424 N.ar      1 MOL    -0.2334
      8 C13        71.3810   40.9767    8.7258 C.ar      1 MOL     0.1153
      9 C15        73.1600   42.6090    8.8518 C.ar      1 MOL     0.0138
     10 C14        71.9049   42.2248    8.3641 C.ar      1 MOL     0.0445
     11 N16        70.1814   40.6017    8.2818 N.pl3     1 MOL    -0.3432
     12 C3         73.9736   39.6227   10.8511 C.ar      1 MOL     0.0295
     13 C2         75.2329   39.9606   11.3529 C.ar      1 MOL     0.0108
     14 C1         75.8071   41.1925   11.0358 C.ar      1 MOL    -0.0171
     15 C11        78.4780   42.4944   13.0995 C.2       1 MOL     0.0459
     16 S9         79.4752   41.7385   11.9883 S.3       1 MOL    -0.1054
     17 H161       69.6911   39.8421    8.7321 H         1 MOL     0.1442
     18 H162       69.7628   41.0771    7.4952 H         1 MOL     0.1442
@<TRIPOS>BOND
     1    2    1 ar
     2    1    7 ar
     3    1   12 ar
     4    3    2 ar
     5    2    9 ar
     6   14    3 ar
     7    4    5 1 
     8    4    6 2 
     9    4   14 1 
    10    5   15 2 
    11    6   16 1 
    12    7    8 ar
    13    8   10 ar
    14    8   11 1 
    15    9   10 ar
    16   12   13 ar
    17   13   14 ar
    18   15   16 1 
    19   17   11 1 
    20   18   11 1 
@<TRIPOS>SUBSTRUCTURE
1 MOL         1
@<TRIPOS>MOLECULE
query molecule
   18    20     1     0     0
SMALL
NO_CHARGE

@<TRIPOS>ATOM
      1 C4         76.2391   42.5811   10.2894 C.ar      1 MOL     0.0725
      2 C5         76.7230   41.3090    9.9740 C.ar      1 MOL     0.0009
      3 C6         76.9641   40.9703    8.6422 C.ar      1 MOL     0.0187
      4 C7         76.9595   41.5652    6.2721 C.2       1 MOL    -0.0112
      5 C8         75.9562   41.1603    5.4419 C.2       1 MOL     0.0163
      6 C10        78.1542   41.6571    5.6601 C.2       1 MOL     0.0538
      7 N12        76.0189   42.9334   11.5664 N.ar      1 MOL    -0.2334
      8 C13        76.2519   42.0759   12.5829 C.ar      1 MOL     0.1153
      9 C15        76.9697   40.3958   10.9995 C.ar      1 MOL     0.0138
     10 C14        76.7294   40.7846   12.3231 C.ar      1 MOL     0.0445
     11 N16        76.0044   42.4570   13.8359 N.pl3     1 MOL    -0.3432
     12 C3         76.0024   43.5023    9.2701 C.ar      1 MOL     0.0295
     13 C2         76.2373   43.1607    7.9359 C.ar      1 MOL     0.0108
     14 C1         76.7061   41.8872    7.6099 C.ar      1 MOL    -0.0171
     15 C11        76.2568   40.8837    4.1633 C.2       1 MOL     0.0459
     16 S9         77.8984   41.1845    4.0399 S.3       1 MOL    -0.1054
     17 H161       75.4285   43.2677   14.0129 H         1 MOL     0.1442
     18 H162       76.3926   41.9351   14.6086 H         1 MOL     0.1442
@<TRIPOS>BOND
     1    2    1 ar
     2    1    7 ar
     3    1   12 ar
     4    3    2 ar
     5    2    9 ar
     6   14    3 ar
     7    4    5 1 
     8    4    6 2 
     9    4   14 1 
    10    5   15 2 
    11    6   16 1 
    12    7    8 ar
    13    8   10 ar
    14    8   11 1 
    15    9   10 ar
    16   12   13 ar
    17   13   14 ar
    18   15   16 1 
    19   17   11 1 
    20   18   11 1 
@<TRIPOS>SUBSTRUCTURE
1 MOL         1
@<TRIPOS>MOLECULE
query molecule
   18    20     1     0     0
SMALL
NO_CHARGE

@<TRIPOS>ATOM
      1 C4         67.6039   46.6063    8.0580 C.ar      1 MOL     0.0725
      2 C5         68.1491   47.8837    8.2096 C.ar      1 MOL     0.0009
      3 C6         67.4012   48.8872    8.8261 C.ar      1 MOL     0.0187
      4 C7         65.3420   49.6280    9.9134 C.2       1 MOL    -0.0112
      5 C8         63.9975   49.7313    9.7099 C.2       1 MOL     0.0163
      6 C10        65.8190   50.5266   10.7940 C.2       1 MOL     0.0538
      7 N12        68.3146   45.6216    7.4848 N.ar      1 MOL    -0.2334
      8 C13        69.5702   45.8303    7.0346 C.ar      1 MOL     0.1153
      9 C15        69.4423   48.1359    7.7508 C.ar      1 MOL     0.0138
     10 C14        70.1627   47.0943    7.1535 C.ar      1 MOL     0.0445
     11 N16        70.2369   44.8318    6.4558 N.pl3     1 MOL    -0.3432
     12 C3         66.3168   46.3448    8.5255 C.ar      1 MOL     0.0295
     13 C2         65.5653   47.3516    9.1366 C.ar      1 MOL     0.0108
     14 C1         66.0957   48.6347    9.2788 C.ar      1 MOL    -0.0171
     15 C11        63.3242   50.6924   10.3616 C.2       1 MOL     0.0459
     16 S9         64.4834   51.4694   11.2852 S.3       1 MOL    -0.1054
     17 H161       70.0743   43.8790    6.7490 H         1 MOL     0.1442
     18 H162       70.9046   45.0278    5.7238 H         1 MOL     0.1442
@<TRIPOS>BOND
     1    2    1 ar
     2    1    7 ar
     3    1   12 ar
     4    3    2 ar
     5    2    9 ar
     6   14    3 ar
     7    4    5 1 
     8    4    6 2 
     9    4   14 1 
    10    5   15 2 
    11    6   16 1 
    12    7    8 ar
    13    8   10 ar
    14    8   11 1 
    15    9   10 ar
    16   12   13 ar
    17   13   14 ar
    18   15   16 1 
    19   17   11 1 
    20   18   11 1 
@<TRIPOS>SUBSTRUCTURE
1 MOL         1
@<TRIPOS>MOLECULE
query molecule
   18    20     1     0     0
SMALL
NO_CHARGE

@<TRIPOS>ATOM
      1 C4         70.1733   50.3971   10.7244 C.ar      1 MOL     0.0725
      2 C5         69.4644   49.5197    9.9000 C.ar      1 MOL     0.0009
      3 C6         68.0731   49.4603    9.9858 C.ar      1 MOL     0.0187
      4 C7         65.9796   50.2200   10.9915 C.2       1 MOL    -0.0112
      5 C8         65.3504   49.9964   12.1805 C.2       1 MOL     0.0163
      6 C10        65.1302   50.4356    9.9705 C.2       1 MOL     0.0538
      7 N12        71.5109   50.4834   10.6437 N.ar      1 MOL    -0.2334
      8 C13        72.2133   49.7283    9.7724 C.ar      1 MOL     0.1153
      9 C15        70.1590   48.7205    8.9916 C.ar      1 MOL     0.0138
     10 C14        71.5539   48.8254    8.9279 C.ar      1 MOL     0.0445
     11 N16        73.5418   49.8301    9.7344 N.pl3     1 MOL    -0.3432
     12 C3         69.4838   51.2073   11.6254 C.ar      1 MOL     0.0295
     13 C2         68.0912   51.1428   11.7162 C.ar      1 MOL     0.0108
     14 C1         67.3756   50.2584   10.9076 C.ar      1 MOL    -0.0171
     15 C11        64.0083   49.9901   12.2025 C.2       1 MOL     0.0459
     16 S9         63.5577   50.3087   10.6226 S.3       1 MOL    -0.1054
     17 H161       73.9868   50.7126    9.9423 H         1 MOL     0.1442
     18 H162       74.1035   49.0248    9.4978 H         1 MOL     0.1442
@<TRIPOS>BOND
     1    2    1 ar
     2    1    7 ar
     3    1   12 ar
     4    3    2 ar
     5    2    9 ar
     6   14    3 ar
     7    4    5 1 
     8    4    6 2 
     9    4   14 1 
    10    5   15 2 
    11    6   16 1 
    12    7    8 ar
    13    8   10 ar
    14    8   11 1 
    15    9   10 ar
    16   12   13 ar
    17   13   14 ar
    18   15   16 1 
    19   17   11 1 
    20   18   11 1 
@<TRIPOS>SUBSTRUCTURE
1 MOL         1
@<TRIPOS>MOLECULE
query molecule
   18    20     1     0     0
SMALL
NO_CHARGE

@<TRIPOS>ATOM
      1 C4         65.4711   54.8953   16.7044 C.ar      1 MOL     0.0725
      2 C5         65.4143   53.6272   16.1208 C.ar      1 MOL     0.0009
      3 C6         65.1354   52.5125   16.9121 C.ar      1 MOL     0.0187
      4 C7         64.6343   51.5387   19.0967 C.2       1 MOL    -0.0112
      5 C8         64.9875   51.5057   20.4134 C.2       1 MOL     0.0163
      6 C10        63.9565   50.4467   18.6985 C.2       1 MOL     0.0538
      7 N12        65.7189   55.9831   15.9571 N.ar      1 MOL    -0.2334
      8 C13        65.9242   55.8903   14.6259 C.ar      1 MOL     0.1153
      9 C15        65.6269   53.4940   14.7485 C.ar      1 MOL     0.0138
     10 C14        65.8870   54.6422   13.9902 C.ar      1 MOL     0.0445
     11 N16        66.1846   56.9913   13.9212 N.pl3     1 MOL    -0.3432
     12 C3         65.2472   55.0363   18.0732 C.ar      1 MOL     0.0295
     13 C2         64.9748   53.9192   18.8667 C.ar      1 MOL     0.0108
     14 C1         64.9311   52.6466   18.2954 C.ar      1 MOL    -0.0171
     15 C11        64.6585   50.4239   21.1367 C.2       1 MOL     0.0459
     16 S9         63.8429   49.4304   20.0652 S.3       1 MOL    -0.1054
     17 H161       67.0984   57.1249   13.5123 H         1 MOL     0.1442
     18 H162       65.4681   57.6920   13.7960 H         1 MOL     0.1442
@<TRIPOS>BOND
     1    2    1 ar
     2    1    7 ar
     3    1   12 ar
     4    3    2 ar
     5    2    9 ar
     6   14    3 ar
     7    4    5 1 
     8    4    6 2 
     9    4   14 1 
    10    5   15 2 
    11    6   16 1 
    12    7    8 ar
    13    8   10 ar
    14    8   11 1 
    15    9   10 ar
    16   12   13 ar
    17   13   14 ar
    18   15   16 1 
    19   17   11 1 
    20   18   11 1 
@<TRIPOS>SUBSTRUCTURE
1 MOL         1
@<TRIPOS>MOLECULE
query molecule
   18    20     1     0     0
SMALL
NO_CHARGE

@<TRIPOS>ATOM
      1 C4         70.2788   41.4399   13.8453 C.ar      1 MOL     0.0725
      2 C5         69.2432   40.5333   13.6053 C.ar      1 MOL     0.0009
      3 C6         67.9881   41.0024   13.2166 C.ar      1 MOL     0.0187
      4 C7         66.4964   42.8615   12.6780 C.2       1 MOL    -0.0112
      5 C8         66.0086   44.0433   13.1523 C.2       1 MOL     0.0163
      6 C10        65.6862   42.2717   11.7801 C.2       1 MOL     0.0538
      7 N12        71.4992   41.0077   14.2014 N.ar      1 MOL    -0.2334
      8 C13        71.7660   39.6918   14.3430 C.ar      1 MOL     0.1153
      9 C15        69.4824   39.1662   13.7475 C.ar      1 MOL     0.0138
     10 C14        70.7621   38.7394   14.1231 C.ar      1 MOL     0.0445
     11 N16        72.9855   39.3032   14.7149 N.pl3     1 MOL    -0.3432
     12 C3         70.0493   42.8066   13.6928 C.ar      1 MOL     0.0295
     13 C2         68.7906   43.2767   13.3103 C.ar      1 MOL     0.0108
     14 C1         67.7458   42.3796   13.0832 C.ar      1 MOL    -0.0171
     15 C11        64.8123   44.4639   12.7122 C.2       1 MOL     0.0459
     16 S9         64.3224   43.2869   11.6281 S.3       1 MOL    -0.1054
     17 H161       73.1268   38.8826   15.6223 H         1 MOL     0.1442
     18 H162       73.7684   39.4291   14.0893 H         1 MOL     0.1442
@<TRIPOS>BOND
     1    2    1 ar
     2    1    7 ar
     3    1   12 ar
     4    3    2 ar
     5    2    9 ar
     6   14    3 ar
     7    4    5 1 
     8    4    6 2 
     9    4   14 1 
    10    5   15 2 
    11    6   16 1 
    12    7    8 ar
    13    8   10 ar
    14    8   11 1 
    15    9   10 ar
    16   12   13 ar
    17   13   14 ar
    18   15   16 1 
    19   17   11 1 
    20   18   11 1 
@<TRIPOS>SUBSTRUCTURE
1 MOL         1
@<TRIPOS>MOLECULE
query molecule
   18    20     1     0     0
SMALL
NO_CHARGE

@<TRIPOS>ATOM
      1 C4         64.7579   46.7236   15.8747 C.ar      1 MOL     0.0725
      2 C5         63.6132   47.3840   15.4214 C.ar      1 MOL     0.0009
      3 C6         63.1964   48.5579   16.0495 C.ar      1 MOL     0.0187
      4 C7         63.5047   50.2598   17.7759 C.2       1 MOL    -0.0112
      5 C8         63.8530   51.4773   17.2700 C.2       1 MOL     0.0163
      6 C10        62.7286   50.3395   18.8722 C.2       1 MOL     0.0538
      7 N12        65.1866   45.6030   15.2716 N.ar      1 MOL    -0.2334
      8 C13        64.5296   45.0765   14.2162 C.ar      1 MOL     0.1153
      9 C15        62.9067   46.8646   14.3362 C.ar      1 MOL     0.0138
     10 C14        63.3710   45.6931   13.7257 C.ar      1 MOL     0.0445
     11 N16        64.9769   43.9531   13.6555 N.pl3     1 MOL    -0.3432
     12 C3         65.4752   47.2444   16.9508 C.ar      1 MOL     0.0295
     13 C2         65.0538   48.4162   17.5841 C.ar      1 MOL     0.0108
     14 C1         63.9030   49.0745   17.1482 C.ar      1 MOL    -0.0171
     15 C11        63.4250   52.5797   17.9051 C.2       1 MOL     0.0459
     16 S9         62.5210   52.0038   19.1902 S.3       1 MOL    -0.1054
     17 H161       64.3420   43.3558   13.1453 H         1 MOL     0.1442
     18 H162       65.9506   43.6990   13.7408 H         1 MOL     0.1442
@<TRIPOS>BOND
     1    2    1 ar
     2    1    7 ar
     3    1   12 ar
     4    3    2 ar
     5    2    9 ar
     6   14    3 ar
     7    4    5 1 
     8    4    6 2 
     9    4   14 1 
    10    5   15 2 
    11    6   16 1 
    12    7    8 ar
    13    8   10 ar
    14    8   11 1 
    15    9   10 ar
    16   12   13 ar
    17   13   14 ar
    18   15   16 1 
    19   17   11 1 
    20   18   11 1 
@<TRIPOS>SUBSTRUCTURE
1 MOL         1
@<TRIPOS>MOLECULE
query molecule
   18    20     1     0     0
SMALL
NO_CHARGE

@<TRIPOS>ATOM
      1 C4         70.9263   50.1430   11.4449 C.ar      1 MOL     0.0725
      2 C5         70.7523   51.0452   10.3924 C.ar      1 MOL     0.0009
      3 C6         71.2065   50.7153    9.1151 C.ar      1 MOL     0.0187
      4 C7         72.3020   49.1438    7.5980 C.2       1 MOL    -0.0112
      5 C8         73.6075   48.8234    7.3683 C.2       1 MOL     0.0163
      6 C10        71.5265   49.0400    6.5033 C.2       1 MOL     0.0538
      7 N12        70.4791   50.4333   12.6773 N.ar      1 MOL    -0.2334
      8 C13        69.8536   51.6001   12.9420 C.ar      1 MOL     0.1153
      9 C15        70.1147   52.2628   10.6316 C.ar      1 MOL     0.0138
     10 C14        69.6600   52.5449   11.9256 C.ar      1 MOL     0.0445
     11 N16        69.4395   51.8590   14.1822 N.pl3     1 MOL    -0.3432
     12 C3         71.5516   48.9194   11.2094 C.ar      1 MOL     0.0295
     13 C2         72.0126   48.5920    9.9319 C.ar      1 MOL     0.0108
     14 C1         71.8570   49.4931    8.8775 C.ar      1 MOL    -0.0171
     15 C11        73.9715   48.4774    6.1235 C.2       1 MOL     0.0459
     16 S9         72.5569   48.5527    5.2326 S.3       1 MOL    -0.1054
     17 H161       69.3207   52.8149   14.4858 H         1 MOL     0.1442
     18 H162       69.2444   51.0992   14.8184 H         1 MOL     0.1442
@<TRIPOS>BOND
     1    2    1 ar
     2    1    7 ar
     3    1   12 ar
     4    3    2 ar
     5    2    9 ar
     6   14    3 ar
     7    4    5 1 
     8    4    6 2 
     9    4   14 1 
    10    5   15 2 
    11    6   16 1 
    12    7    8 ar
    13    8   10 ar
    14    8   11 1 
    15    9   10 ar
    16   12   13 ar
    17   13   14 ar
    18   15   16 1 
    19   17   11 1 
    20   18   11 1 
@<TRIPOS>SUBSTRUCTURE
1 MOL         1
@<TRIPOS>MOLECULE
query molecule
   18    20     1     0     0
SMALL
NO_CHARGE

@<TRIPOS>ATOM
      1 C4         68.2014   44.0552    7.5480 C.ar      1 MOL     0.0725
      2 C5         69.3950   44.7123    7.2389 C.ar      1 MOL     0.0009
      3 C6         70.5439   43.9694    6.9655 C.ar      1 MOL     0.0187
      4 C7         71.6621   41.8095    6.7294 C.2       1 MOL    -0.0112
      5 C8         72.2638   41.8784    5.5075 C.2       1 MOL     0.0163
      6 C10        72.3005   40.9997    7.5937 C.2       1 MOL     0.0538
      7 N12        67.0801   44.7514    7.7952 N.ar      1 MOL    -0.2334
      8 C13        67.0672   46.1009    7.7579 C.ar      1 MOL     0.1153
      9 C15        69.4189   46.1065    7.1969 C.ar      1 MOL     0.0138
     10 C14        68.2380   46.8111    7.4616 C.ar      1 MOL     0.0445
     11 N16        65.9381   46.7565    8.0262 N.pl3     1 MOL    -0.3432
     12 C3         68.1682   42.6618    7.5793 C.ar      1 MOL     0.0295
     13 C2         69.3203   41.9181    7.3124 C.ar      1 MOL     0.0108
     14 C1         70.5210   42.5659    7.0177 C.ar      1 MOL    -0.0171
     15 C11        73.3673   41.1441    5.2959 C.2       1 MOL     0.0459
     16 S9         73.6370   40.3573    6.7481 S.3       1 MOL    -0.1054
     17 H161       65.1449   46.6709    7.4068 H         1 MOL     0.1442
     18 H162       65.8756   47.3389    8.8490 H         1 MOL     0.1442
@<TRIPOS>BOND
     1    2    1 ar
     2    1    7 ar
     3    1   12 ar
     4    3    2 ar
     5    2    9 ar
     6   14    3 ar
     7    4    5 1 
     8    4    6 2 
     9    4   14 1 
    10    5   15 2 
    11    6   16 1 
    12    7    8 ar
    13    8   10 ar
    14    8   11 1 
    15    9   10 ar
    16   12   13 ar
    17   13   14 ar
    18   15   16 1 
    19   17   11 1 
    20   18   11 1 
@<TRIPOS>SUBSTRUCTURE
1 MOL         1
@<TRIPOS>MOLECULE
query molecule
   18    20     1     0     0
SMALL
NO_CHARGE

@<TRIPOS>ATOM
      1 C4         66.4554   50.6193    9.4008 C.ar      1 MOL     0.0725
      2 C5         65.9203   49.8495   10.4366 C.ar      1 MOL     0.0009
      3 C6         65.3200   48.6232   10.1493 C.ar      1 MOL     0.0187
      4 C7         64.6433   46.9258    8.5269 C.2       1 MOL    -0.0112
      5 C8         65.3284   45.9699    7.8365 C.2       1 MOL     0.0163
      6 C10        63.4138   46.5319    8.9061 C.2       1 MOL     0.0538
      7 N12        67.0544   51.7932    9.6585 N.ar      1 MOL    -0.2334
      8 C13        67.1567   52.2694   10.9176 C.ar      1 MOL     0.1153
      9 C15        66.0037   50.3139   11.7495 C.ar      1 MOL     0.0138
     10 C14        66.6299   51.5424   11.9933 C.ar      1 MOL     0.0445
     11 N16        67.7432   53.4472   11.1308 N.pl3     1 MOL    -0.3432
     12 C3         66.3861   50.1548    8.0881 C.ar      1 MOL     0.0295
     13 C2         65.7788   48.9301    7.7997 C.ar      1 MOL     0.0108
     14 C1         65.2279   48.1612    8.8259 C.ar      1 MOL    -0.0171
     15 C11        64.7221   44.7967    7.5961 C.2       1 MOL     0.0459
     16 S9         63.2181   44.9424    8.3154 S.3       1 MOL    -0.1054
     17 H161       68.7287   53.5622   10.9419 H         1 MOL     0.1442
     18 H162       67.2021   54.2247   11.4812 H         1 MOL     0.1442
@<TRIPOS>BOND
     1    2    1 ar
     2    1    7 ar
     3    1   12 ar
     4    3    2 ar
     5    2    9 ar
     6   14    3 ar
     7    4    5 1 
     8    4    6 2 
     9    4   14 1 
    10    5   15 2 
    11    6   16 1 
    12    7    8 ar
    13    8   10 ar
    14    8   11 1 
    15    9   10 ar
    16   12   13 ar
    17   13   14 ar
    18   15   16 1 
    19   17   11 1 
    20   18   11 1 
@<TRIPOS>SUBSTRUCTURE
1 MOL         1
@<TRIPOS>MOLECULE
query molecule
   18    20     1     0     0
SMALL
NO_CHARGE

@<TRIPOS>ATOM
      1 C4         69.8352   47.6449    7.6753 C.ar      1 MOL     0.0725
      2 C5         68.6474   47.9180    8.3583 C.ar      1 MOL     0.0009
      3 C6         68.4410   49.1825    8.9105 C.ar      1 MOL     0.0187
      4 C7         69.2216   51.4577    9.3413 C.2       1 MOL    -0.0112
      5 C8         69.7889   51.8240   10.5260 C.2       1 MOL     0.0163
      6 C10        68.5181   52.4457    8.7585 C.2       1 MOL     0.0538
      7 N12        70.0450   46.4404    7.1200 N.ar      1 MOL    -0.2334
      8 C13        69.1242   45.4567    7.2046 C.ar      1 MOL     0.1153
      9 C15        67.6763   46.9226    8.4695 C.ar      1 MOL     0.0138
     10 C14        67.9188   45.6734    7.8853 C.ar      1 MOL     0.0445
     11 N16        69.3768   44.2689    6.6551 N.pl3     1 MOL    -0.3432
     12 C3         70.8043   48.6394    7.5501 C.ar      1 MOL     0.0295
     13 C2         70.6004   49.9035    8.1090 C.ar      1 MOL     0.0108
     14 C1         69.4237   50.1809    8.8063 C.ar      1 MOL    -0.0171
     15 C11        69.5751   53.0691   10.9795 C.2       1 MOL     0.0459
     16 S9         68.6207   53.7882    9.8079 S.3       1 MOL    -0.1054
     17 H161       69.5143   43.4594    7.2432 H         1 MOL     0.1442
     18 H162       69.4307   44.1783    5.6506 H         1 MOL     0.1442
@<TRIPOS>BOND
     1    2    1 ar
     2    1    7 ar
     3    1   12 ar
     4    3    2 ar
     5    2    9 ar
     6   14    3 ar
     7    4    5 1 
     8    4    6 2 
     9    4   14 1 
    10    5   15 2 
    11    6   16 1 
    12    7    8 ar
    13    8   10 ar
    14    8   11 1 
    15    9   10 ar
    16   12   13 ar
    17   13   14 ar
    18   15   16 1 
    19   17   11 1 
    20   18   11 1 
@<TRIPOS>SUBSTRUCTURE
1 MOL         1
@<TRIPOS>MOLECULE
query molecule
   18    20     1     0     0
SMALL
NO_CHARGE

@<TRIPOS>ATOM
      1 C4         64.2361   46.8524    7.7157 C.ar      1 MOL     0.0725
      2 C5         64.9475   45.8630    8.3991 C.ar      1 MOL     0.0009
      3 C6         66.3421   45.8981    8.4142 C.ar      1 MOL     0.0187
      4 C7         68.4404   46.9619    7.7533 C.2       1 MOL    -0.0112
      5 C8         69.1029   47.6908    8.6965 C.2       1 MOL     0.0163
      6 C10        69.2608   46.2983    6.9183 C.2       1 MOL     0.0538
      7 N12        62.8934   46.8474    7.7053 N.ar      1 MOL    -0.2334
      8 C13        62.1883   45.8913    8.3468 C.ar      1 MOL     0.1153
      9 C15        64.2508   44.8566    9.0685 C.ar      1 MOL     0.0138
     10 C14        62.8509   44.8702    9.0408 C.ar      1 MOL     0.0445
     11 N16        60.8564   45.9109    8.2986 N.pl3     1 MOL    -0.3432
     12 C3         64.9264   47.8678    7.0553 C.ar      1 MOL     0.0295
     13 C2         66.3231   47.8990    7.0646 C.ar      1 MOL     0.0108
     14 C1         67.0426   46.9064    7.7318 C.ar      1 MOL    -0.0171
     15 C11        70.4451   47.6902    8.6786 C.2       1 MOL     0.0459
     16 S9         70.8510   46.6871    7.4020 S.3       1 MOL    -0.1054
     17 H161       60.3585   45.1892    7.7973 H         1 MOL     0.1442
     18 H162       60.3451   46.6475    8.7634 H         1 MOL     0.1442
@<TRIPOS>BOND
     1    2    1 ar
     2    1    7 ar
     3    1   12 ar
     4    3    2 ar
     5    2    9 ar
     6   14    3 ar
     7    4    5 1 
     8    4    6 2 
     9    4   14 1 
    10    5   15 2 
    11    6   16 1 
    12    7    8 ar
    13    8   10 ar
    14    8   11 1 
    15    9   10 ar
    16   12   13 ar
    17   13   14 ar
    18   15   16 1 
    19   17   11 1 
    20   18   11 1 
@<TRIPOS>SUBSTRUCTURE
1 MOL         1
@<TRIPOS>MOLECULE
query molecule
   18    20     1     0     0
SMALL
NO_CHARGE

@<TRIPOS>ATOM
      1 C4         67.0513   40.5575   13.1687 C.ar      1 MOL     0.0725
      2 C5         66.6792   41.7879   12.6213 C.ar      1 MOL     0.0009
      3 C6         67.4057   42.3200   11.5557 C.ar      1 MOL     0.0187
      4 C7         69.2488   42.1578    9.9593 C.2       1 MOL    -0.0112
      5 C8         68.9941   41.7558    8.6814 C.2       1 MOL     0.0163
      6 C10        70.2057   43.1002   10.0416 C.2       1 MOL     0.0538
      7 N12        66.3535   40.0191   14.1818 N.ar      1 MOL    -0.2334
      8 C13        65.2781   40.6446   14.7060 C.ar      1 MOL     0.1153
      9 C15        65.5759   42.4644   13.1423 C.ar      1 MOL     0.0138
     10 C14        64.8659   41.8848   14.2010 C.ar      1 MOL     0.0445
     11 N16        64.6218   40.0859   15.7228 N.pl3     1 MOL    -0.3432
     12 C3         68.1454   39.8708   12.6442 C.ar      1 MOL     0.0295
     13 C2         68.8771   40.4070   11.5817 C.ar      1 MOL     0.0108
     14 C1         68.5223   41.6427   11.0383 C.ar      1 MOL    -0.0171
     15 C11        69.7106   42.2999    7.6852 C.2       1 MOL     0.0459
     16 S9         70.7326   43.3866    8.4435 S.3       1 MOL    -0.1054
     17 H161       63.7156   39.6670   15.5698 H         1 MOL     0.1442
     18 H162       65.0307   40.0815   16.6463 H         1 MOL     0.1442
@<TRIPOS>BOND
     1    2    1 ar
     2    1    7 ar
     3    1   12 ar
     4    3    2 ar
     5    2    9 ar
     6   14    3 ar
     7    4    5 1 
     8    4    6 2 
     9    4   14 1 
    10    5   15 2 
    11    6   16 1 
    12    7    8 ar
    13    8   10 ar
    14    8   11 1 
    15    9   10 ar
    16   12   13 ar
    17   13   14 ar
    18   15   16 1 
    19   17   11 1 
    20   18   11 1 
@<TRIPOS>SUBSTRUCTURE
1 MOL         1
@<TRIPOS>MOLECULE
query molecule
   18    20     1     0     0
SMALL
NO_CHARGE

@<TRIPOS>ATOM
      1 C4         69.0021   49.9646    8.2072 C.ar      1 MOL     0.0725
      2 C5         69.5476   48.8331    8.8189 C.ar      1 MOL     0.0009
      3 C6         70.3286   48.9748    9.9662 C.ar      1 MOL     0.0187
      4 C7         71.3593   50.3993   11.6632 C.2       1 MOL    -0.0112
      5 C8         70.9355   51.1901   12.6902 C.2       1 MOL     0.0163
      6 C10        72.5271   49.7795   11.9138 C.2       1 MOL     0.0538
      7 N12        68.2317   49.8481    7.1135 N.ar      1 MOL    -0.2334
      8 C13        67.9622   48.6429    6.5679 C.ar      1 MOL     0.1153
      9 C15        69.2938   47.5723    8.2785 C.ar      1 MOL     0.0138
     10 C14        68.4905   47.4759    7.1356 C.ar      1 MOL     0.0445
     11 N16        67.2074   48.5700    5.4718 N.pl3     1 MOL    -0.3432
     12 C3         69.2419   51.2263    8.7497 C.ar      1 MOL     0.0295
     13 C2         70.0297   51.3686    9.8946 C.ar      1 MOL     0.0108
     14 C1         70.5915   50.2456   10.5038 C.ar      1 MOL    -0.0171
     15 C11        71.7059   51.2832   13.7855 C.2       1 MOL     0.0459
     16 S9         73.0133   50.2877   13.4692 S.3       1 MOL    -0.1054
     17 H161       66.2585   48.2296    5.5337 H         1 MOL     0.1442
     18 H162       67.5843   48.8553    4.5792 H         1 MOL     0.1442
@<TRIPOS>BOND
     1    2    1 ar
     2    1    7 ar
     3    1   12 ar
     4    3    2 ar
     5    2    9 ar
     6   14    3 ar
     7    4    5 1 
     8    4    6 2 
     9    4   14 1 
    10    5   15 2 
    11    6   16 1 
    12    7    8 ar
    13    8   10 ar
    14    8   11 1 
    15    9   10 ar
    16   12   13 ar
    17   13   14 ar
    18   15   16 1 
    19   17   11 1 
    20   18   11 1 
@<TRIPOS>SUBSTRUCTURE
1 MOL         1
@<TRIPOS>MOLECULE
query molecule
   18    20     1     0     0
SMALL
NO_CHARGE

@<TRIPOS>ATOM
      1 C4         62.5682   46.6088   11.1069 C.ar      1 MOL     0.0725
      2 C5         63.4861   47.6196   11.4031 C.ar      1 MOL     0.0009
      3 C6         64.5381   47.8791   10.5243 C.ar      1 MOL     0.0187
      4 C7         65.7400   47.3826    8.4554 C.2       1 MOL    -0.0112
      5 C8         65.5895   48.2850    7.4441 C.2       1 MOL     0.0163
      6 C10        66.9697   46.8390    8.5070 C.2       1 MOL     0.0538
      7 N12        61.5376   46.3563   11.9300 N.ar      1 MOL    -0.2334
      8 C13        61.3554   47.0623   13.0663 C.ar      1 MOL     0.1153
      9 C15        63.3310   48.3654   12.5719 C.ar      1 MOL     0.0138
     10 C14        62.2506   48.0816   13.4164 C.ar      1 MOL     0.0445
     11 N16        60.3300   46.7700   13.8661 N.pl3     1 MOL    -0.3432
     12 C3         62.7107   45.8684    9.9343 C.ar      1 MOL     0.0295
     13 C2         63.7682   46.1236    9.0577 C.ar      1 MOL     0.0108
     14 C1         64.6988   47.1211    9.3527 C.ar      1 MOL    -0.0171
     15 C11        66.6303   48.5083    6.6264 C.2       1 MOL     0.0459
     16 S9         67.8490   47.5232    7.2137 S.3       1 MOL    -0.1054
     17 H161       60.0877   45.8058   14.0447 H         1 MOL     0.1442
     18 H162       59.7953   47.5125   14.2936 H         1 MOL     0.1442
@<TRIPOS>BOND
     1    2    1 ar
     2    1    7 ar
     3    1   12 ar
     4    3    2 ar
     5    2    9 ar
     6   14    3 ar
     7    4    5 1 
     8    4    6 2 
     9    4   14 1 
    10    5   15 2 
    11    6   16 1 
    12    7    8 ar
    13    8   10 ar
    14    8   11 1 
    15    9   10 ar
    16   12   13 ar
    17   13   14 ar
    18   15   16 1 
    19   17   11 1 
    20   18   11 1 
@<TRIPOS>SUBSTRUCTURE
1 MOL         1
@<TRIPOS>MOLECULE
query molecule
   18    20     1     0     0
SMALL
NO_CHARGE

@<TRIPOS>ATOM
      1 C4         70.1210   51.3700   11.5388 C.ar      1 MOL     0.0725
      2 C5         70.4357   50.0275   11.3141 C.ar      1 MOL     0.0009
      3 C6         69.7551   49.3122   10.3283 C.ar      1 MOL     0.0187
      4 C7         68.0621   49.2186    8.5686 C.2       1 MOL    -0.0112
      5 C8         68.4880   49.2509    7.2735 C.2       1 MOL     0.0163
      6 C10        66.9901   48.4278    8.7582 C.2       1 MOL     0.0538
      7 N12        70.7776   52.0813   12.4694 N.ar      1 MOL    -0.2334
      8 C13        71.7552   51.5275   13.2181 C.ar      1 MOL     0.1153
      9 C15        71.4371   49.4218   12.0734 C.ar      1 MOL     0.0138
     10 C14        72.1056   50.1826   13.0404 C.ar      1 MOL     0.0445
     11 N16        72.3719   52.2618   14.1439 N.pl3     1 MOL    -0.3432
     12 C3         69.1298   51.9843   10.7747 C.ar      1 MOL     0.0295
     13 C2         68.4435   51.2661    9.7924 C.ar      1 MOL     0.0108
     14 C1         68.7403   49.9204    9.5711 C.ar      1 MOL    -0.0171
     15 C11        67.8081   48.5416    6.3590 C.2       1 MOL     0.0459
     16 S9         66.5882   47.7926    7.2256 S.3       1 MOL    -0.1054
     17 H161       71.8388   52.8914   14.7266 H         1 MOL     0.1442
     18 H162       73.3721   52.1885   14.2628 H         1 MOL     0.1442
@<TRIPOS>BOND
     1    2    1 ar
     2    1    7 ar
     3    1   12 ar
     4    3    2 ar
     5    2    9 ar
     6   14    3 ar
     7    4    5 1 
     8    4    6 2 
     9    4   14 1 
    10    5   15 2 
    11    6   16 1 
    12    7    8 ar
    13    8   10 ar
    14    8   11 1 
    15    9   10 ar
    16   12   13 ar
    17   13   14 ar
    18   15   16 1 
    19   17   11 1 
    20   18   11 1 
@<TRIPOS>SUBSTRUCTURE
1 MOL         1
@<TRIPOS>MOLECULE
query molecule
   18    20     1     0     0
SMALL
NO_CHARGE

@<TRIPOS>ATOM
      1 C4         66.6889   49.9708    9.6274 C.ar      1 MOL     0.0725
      2 C5         67.9371   50.1317   10.2340 C.ar      1 MOL     0.0009
      3 C6         69.0973   50.0501    9.4633 C.ar      1 MOL     0.0187
      4 C7         70.1824   49.7191    7.2989 C.2       1 MOL    -0.0112
      5 C8         71.4066   49.5063    7.8608 C.2       1 MOL     0.0163
      6 C10        70.2187   49.8033    5.9565 C.2       1 MOL     0.0538
      7 N12        65.5596   50.0650   10.3480 N.ar      1 MOL    -0.2334
      8 C13        65.5903   50.3127   11.6748 C.ar      1 MOL     0.1153
      9 C15        68.0060   50.3836   11.6044 C.ar      1 MOL     0.0138
     10 C14        66.8152   50.4741   12.3356 C.ar      1 MOL     0.0445
     11 N16        64.4482   50.3817   12.3586 N.pl3     1 MOL    -0.3432
     12 C3         66.6131   49.7312    8.2561 C.ar      1 MOL     0.0295
     13 C2         67.7751   49.6426    7.4857 C.ar      1 MOL     0.0108
     14 C1         69.0272   49.7867    8.0853 C.ar      1 MOL    -0.0171
     15 C11        72.4763   49.4315    7.0535 C.2       1 MOL     0.0459
     16 S9         71.8566   49.6235    5.5108 S.3       1 MOL    -0.1054
     17 H161       63.6179   49.9309   12.0016 H         1 MOL     0.1442
     18 H162       64.4131   50.8847   13.2336 H         1 MOL     0.1442
@<TRIPOS>BOND
     1    2    1 ar
     2    1    7 ar
     3    1   12 ar
     4    3    2 ar
     5    2    9 ar
     6   14    3 ar
     7    4    5 1 
     8    4    6 2 
     9    4   14 1 
    10    5   15 2 
    11    6   16 1 
    12    7    8 ar
    13    8   10 ar
    14    8   11 1 
    15    9   10 ar
    16   12   13 ar
    17   13   14 ar
    18   15   16 1 
    19   17   11 1 
    20   18   11 1 
@<TRIPOS>SUBSTRUCTURE
1 MOL         1
@<TRIPOS>MOLECULE
query molecule
   18    20     1     0     0
SMALL
NO_CHARGE

@<TRIPOS>ATOM
      1 C4         66.9767   50.0202    9.4540 C.ar      1 MOL     0.0725
      2 C5         68.2583   49.7832    9.9573 C.ar      1 MOL     0.0009
      3 C6         68.9611   48.6470    9.5553 C.ar      1 MOL     0.0187
      4 C7         69.0878   46.5906    8.2413 C.2       1 MOL    -0.0112
      5 C8         69.1902   46.2779    6.9179 C.2       1 MOL     0.0163
      6 C10        69.7532   45.7397    9.0437 C.2       1 MOL     0.0538
      7 N12        66.2915   51.1177    9.8133 N.ar      1 MOL    -0.2334
      8 C13        66.8111   52.0224   10.6703 C.ar      1 MOL     0.1153
      9 C15        68.8238   50.6948   10.8492 C.ar      1 MOL     0.0138
     10 C14        68.0889   51.8302   11.2120 C.ar      1 MOL     0.0445
     11 N16        66.0927   53.0905   11.0162 N.pl3     1 MOL    -0.3432
     12 C3         66.4111   49.1193    8.5527 C.ar      1 MOL     0.0295
     13 C2         67.1122   47.9780    8.1556 C.ar      1 MOL     0.0108
     14 C1         68.3868   47.7249    8.6647 C.ar      1 MOL    -0.0171
     15 C11        69.8921   45.1876    6.5710 C.2       1 MOL     0.0459
     16 S9         70.4532   44.5666    8.0201 S.3       1 MOL    -0.1054
     17 H161       65.0861   53.0696   10.9359 H         1 MOL     0.1442
     18 H162       66.5549   53.9206   11.3586 H         1 MOL     0.1442
@<TRIPOS>BOND
     1    2    1 ar
     2    1    7 ar
     3    1   12 ar
     4    3    2 ar
     5    2    9 ar
     6   14    3 ar
     7    4    5 1 
     8    4    6 2 
     9    4   14 1 
    10    5   15 2 
    11    6   16 1 
    12    7    8 ar
    13    8   10 ar
    14    8   11 1 
    15    9   10 ar
    16   12   13 ar
    17   13   14 ar
    18   15   16 1 
    19   17   11 1 
    20   18   11 1 
@<TRIPOS>SUBSTRUCTURE
1 MOL         1
@<TRIPOS>MOLECULE
query molecule
   18    20     1     0     0
SMALL
NO_CHARGE

@<TRIPOS>ATOM
      1 C4         75.4403   45.0721    6.6951 C.ar      1 MOL     0.0725
      2 C5         75.6555   43.7454    7.0766 C.ar      1 MOL     0.0009
      3 C6         76.1702   43.4635    8.3423 C.ar      1 MOL     0.0187
      4 C7         76.9967   44.2297   10.5106 C.2       1 MOL    -0.0112
      5 C8         78.1993   43.6094   10.6798 C.2       1 MOL     0.0163
      6 C10        76.4060   44.5739   11.6695 C.2       1 MOL     0.0538
      7 N12        74.9275   45.3637    5.4888 N.ar      1 MOL    -0.2334
      8 C13        74.6077   44.3928    4.6069 C.ar      1 MOL     0.1153
      9 C15        75.3411   42.7171    6.1878 C.ar      1 MOL     0.0138
     10 C14        74.8108   43.0457    4.9342 C.ar      1 MOL     0.0445
     11 N16        74.1170   44.7234    3.4125 N.pl3     1 MOL    -0.3432
     12 C3         75.7408   46.1036    7.5836 C.ar      1 MOL     0.0295
     13 C2         76.2628   45.8215    8.8484 C.ar      1 MOL     0.0108
     14 C1         76.4955   44.5001    9.2327 C.ar      1 MOL    -0.0171
     15 C11        78.6372   43.3940   11.9302 C.2       1 MOL     0.0459
     16 S9         77.4484   44.0435   12.9128 S.3       1 MOL    -0.1054
     17 H161       73.8330   44.0015    2.7657 H         1 MOL     0.1442
     18 H162       74.0292   45.6958    3.1541 H         1 MOL     0.1442
@<TRIPOS>BOND
     1    2    1 ar
     2    1    7 ar
     3    1   12 ar
     4    3    2 ar
     5    2    9 ar
     6   14    3 ar
     7    4    5 1 
     8    4    6 2 
     9    4   14 1 
    10    5   15 2 
    11    6   16 1 
    12    7    8 ar
    13    8   10 ar
    14    8   11 1 
    15    9   10 ar
    16   12   13 ar
    17   13   14 ar
    18   15   16 1 
    19   17   11 1 
    20   18   11 1 
@<TRIPOS>SUBSTRUCTURE
1 MOL         1
@<TRIPOS>MOLECULE
query molecule
   18    20     1     0     0
SMALL
NO_CHARGE

@<TRIPOS>ATOM
      1 C4         76.1669   43.7370    8.1223 C.ar      1 MOL     0.0725
      2 C5         76.3090   44.7554    7.1765 C.ar      1 MOL     0.0009
      3 C6         75.7087   45.9952    7.3982 C.ar      1 MOL     0.0187
      4 C7         74.3508   47.4705    8.7949 C.2       1 MOL    -0.0112
      5 C8         73.5242   48.0481    7.8768 C.2       1 MOL     0.0163
      6 C10        74.4788   48.1899    9.9248 C.2       1 MOL     0.0538
      7 N12        76.7528   42.5431    7.9370 N.ar      1 MOL    -0.2334
      8 C13        77.4912   42.2850    6.8366 C.ar      1 MOL     0.1153
      9 C15        77.0609   44.5214    6.0249 C.ar      1 MOL     0.0138
     10 C14        77.6596   43.2674    5.8519 C.ar      1 MOL     0.0445
     11 N16        78.0425   41.0815    6.6806 N.pl3     1 MOL    -0.3432
     12 C3         75.4270   43.9689    9.2810 C.ar      1 MOL     0.0295
     13 C2         74.8202   45.2081    9.4997 C.ar      1 MOL     0.0108
     14 C1         74.9438   46.2266    8.5534 C.ar      1 MOL    -0.0171
     15 C11        72.9690   49.2337    8.1728 C.2       1 MOL     0.0459
     16 S9         73.5289   49.5916    9.7087 S.3       1 MOL    -0.1054
     17 H161       78.6335   40.8963    5.8827 H         1 MOL     0.1442
     18 H162       77.8693   40.3548    7.3602 H         1 MOL     0.1442
@<TRIPOS>BOND
     1    2    1 ar
     2    1    7 ar
     3    1   12 ar
     4    3    2 ar
     5    2    9 ar
     6   14    3 ar
     7    4    5 1 
     8    4    6 2 
     9    4   14 1 
    10    5   15 2 
    11    6   16 1 
    12    7    8 ar
    13    8   10 ar
    14    8   11 1 
    15    9   10 ar
    16   12   13 ar
    17   13   14 ar
    18   15   16 1 
    19   17   11 1 
    20   18   11 1 
@<TRIPOS>SUBSTRUCTURE
1 MOL         1
@<TRIPOS>MOLECULE
query molecule
   18    20     1     0     0
SMALL
NO_CHARGE

@<TRIPOS>ATOM
      1 C4         67.2414   40.8559   13.2418 C.ar      1 MOL     0.0725
      2 C5         67.1550   42.0075   12.4555 C.ar      1 MOL     0.0009
      3 C6         68.1487   42.2800   11.5148 C.ar      1 MOL     0.0187
      4 C7         70.2428   41.6735   10.4111 C.2       1 MOL    -0.0112
      5 C8         71.5646   41.6303   10.7437 C.2       1 MOL     0.0163
      6 C10        70.0286   41.9305    9.1079 C.2       1 MOL     0.0538
      7 N12        66.2856   40.5656   14.1392 N.ar      1 MOL    -0.2334
      8 C13        65.2172   41.3721   14.3149 C.ar      1 MOL     0.1153
      9 C15        66.0670   42.8662   12.6146 C.ar      1 MOL     0.0138
     10 C14        65.0845   42.5444   13.5591 C.ar      1 MOL     0.0445
     11 N16        64.2982   41.0585   15.2281 N.pl3     1 MOL    -0.3432
     12 C3         68.3199   39.9876   13.0788 C.ar      1 MOL     0.0295
     13 C2         69.3184   40.2641   12.1416 C.ar      1 MOL     0.0108
     14 C1         69.2487   41.4198   11.3623 C.ar      1 MOL    -0.0171
     15 C11        72.4734   41.8633    9.7837 C.2       1 MOL     0.0459
     16 S9         71.5696   42.1247    8.3998 S.3       1 MOL    -0.1054
     17 H161       64.1918   41.6297   16.0543 H         1 MOL     0.1442
     18 H162       63.7083   40.2498   15.0938 H         1 MOL     0.1442
@<TRIPOS>BOND
     1    2    1 ar
     2    1    7 ar
     3    1   12 ar
     4    3    2 ar
     5    2    9 ar
     6   14    3 ar
     7    4    5 1 
     8    4    6 2 
     9    4   14 1 
    10    5   15 2 
    11    6   16 1 
    12    7    8 ar
    13    8   10 ar
    14    8   11 1 
    15    9   10 ar
    16   12   13 ar
    17   13   14 ar
    18   15   16 1 
    19   17   11 1 
    20   18   11 1 
@<TRIPOS>SUBSTRUCTURE
1 MOL         1
@<TRIPOS>MOLECULE
query molecule
   18    20     1     0     0
SMALL
NO_CHARGE

@<TRIPOS>ATOM
      1 C4         65.4161   47.9878   20.3188 C.ar      1 MOL     0.0725
      2 C5         64.4717   46.9885   20.5671 C.ar      1 MOL     0.0009
      3 C6         63.1121   47.3008   20.5497 C.ar      1 MOL     0.0187
      4 C7         61.3190   48.9372   20.2695 C.2       1 MOL    -0.0112
      5 C8         60.8268   49.9996   20.9686 C.2       1 MOL     0.0163
      6 C10        60.3854   48.2999   19.5397 C.2       1 MOL     0.0538
      7 N12        66.7285   47.7038   20.3118 N.ar      1 MOL    -0.2334
      8 C13        67.1790   46.4529   20.5464 C.ar      1 MOL     0.1153
      9 C15        64.9024   45.6856   20.8186 C.ar      1 MOL     0.0138
     10 C14        66.2762   45.4142   20.8095 C.ar      1 MOL     0.0445
     11 N16        68.4904   46.2145   20.5480 N.pl3     1 MOL    -0.3432
     12 C3         64.9914   49.2891   20.0545 C.ar      1 MOL     0.0295
     13 C2         63.6301   49.6032   20.0440 C.ar      1 MOL     0.0108
     14 C1         62.6800   48.6149   20.3059 C.ar      1 MOL    -0.0171
     15 C11        59.5154   50.2715   20.8793 C.2       1 MOL     0.0459
     16 S9         58.9137   49.1143   19.8308 S.3       1 MOL    -0.1054
     17 H161       68.9580   45.9692   21.4090 H         1 MOL     0.1442
     18 H162       69.0165   46.2791   19.6883 H         1 MOL     0.1442
@<TRIPOS>BOND
     1    2    1 ar
     2    1    7 ar
     3    1   12 ar
     4    3    2 ar
     5    2    9 ar
     6   14    3 ar
     7    4    5 1 
     8    4    6 2 
     9    4   14 1 
    10    5   15 2 
    11    6   16 1 
    12    7    8 ar
    13    8   10 ar
    14    8   11 1 
    15    9   10 ar
    16   12   13 ar
    17   13   14 ar
    18   15   16 1 
    19   17   11 1 
    20   18   11 1 
@<TRIPOS>SUBSTRUCTURE
1 MOL         1
@<TRIPOS>MOLECULE
query molecule
   18    20     1     0     0
SMALL
NO_CHARGE

@<TRIPOS>ATOM
      1 C4         67.8264   53.3508   10.9799 C.ar      1 MOL     0.0725
      2 C5         68.4694   53.6604    9.7788 C.ar      1 MOL     0.0009
      3 C6         69.0650   52.6448    9.0302 C.ar      1 MOL     0.0187
      4 C7         69.6237   50.2848    8.7307 C.2       1 MOL    -0.0112
      5 C8         70.9195   49.9099    8.9304 C.2       1 MOL     0.0163
      6 C10        68.9910   49.5446    7.8020 C.2       1 MOL     0.0538
      7 N12        67.2303   54.3108   11.7053 N.ar      1 MOL    -0.2334
      8 C13        67.2345   55.6002   11.3048 C.ar      1 MOL     0.1153
      9 C15        68.4975   54.9836    9.3376 C.ar      1 MOL     0.0138
     10 C14        67.8720   55.9679   10.1126 C.ar      1 MOL     0.0445
     11 N16        66.6467   56.5268   12.0614 N.pl3     1 MOL    -0.3432
     12 C3         67.7842   52.0286   11.4199 C.ar      1 MOL     0.0295
     13 C2         68.3867   51.0126   10.6737 C.ar      1 MOL     0.0108
     14 C1         69.0445   51.3143    9.4804 C.ar      1 MOL    -0.0171
     15 C11        71.4143   48.9023    8.1943 C.2       1 MOL     0.0459
     16 S9         70.1371   48.4174    7.2278 S.3       1 MOL    -0.1054
     17 H161       67.1404   56.9243   12.8479 H         1 MOL     0.1442
     18 H162       65.7077   56.8317   11.8483 H         1 MOL     0.1442
@<TRIPOS>BOND
     1    2    1 ar
     2    1    7 ar
     3    1   12 ar
     4    3    2 ar
     5    2    9 ar
     6   14    3 ar
     7    4    5 1 
     8    4    6 2 
     9    4   14 1 
    10    5   15 2 
    11    6   16 1 
    12    7    8 ar
    13    8   10 ar
    14    8   11 1 
    15    9   10 ar
    16   12   13 ar
    17   13   14 ar
    18   15   16 1 
    19   17   11 1 
    20   18   11 1 
@<TRIPOS>SUBSTRUCTURE
1 MOL         1
@<TRIPOS>MOLECULE
query molecule
   18    20     1     0     0
SMALL
NO_CHARGE

@<TRIPOS>ATOM
      1 C4         70.2815   41.4330   13.9132 C.ar      1 MOL     0.0725
      2 C5         69.2947   40.5139   13.5479 C.ar      1 MOL     0.0009
      3 C6         68.0358   40.9690   13.1545 C.ar      1 MOL     0.0187
      4 C7         66.4874   42.8118   12.7326 C.2       1 MOL    -0.0112
      5 C8         66.2011   44.1451   12.7278 C.2       1 MOL     0.0163
      6 C10        65.4797   42.0479   12.2728 C.2       1 MOL     0.0538
      7 N12        71.5053   41.0163   14.2763 N.ar      1 MOL    -0.2334
      8 C13        71.8221   39.7043   14.3047 C.ar      1 MOL     0.1153
      9 C15        69.5862   39.1498   13.5710 C.ar      1 MOL     0.0138
     10 C14        70.8682   38.7390   13.9563 C.ar      1 MOL     0.0445
     11 N16        73.0427   39.3295   14.6874 N.pl3     1 MOL    -0.3432
     12 C3         70.0001   42.7981   13.8803 C.ar      1 MOL     0.0295
     13 C2         68.7374   43.2534   13.4930 C.ar      1 MOL     0.0108
     14 C1         67.7405   42.3422   13.1410 C.ar      1 MOL    -0.0171
     15 C11        64.9883   44.5371   12.3069 C.2       1 MOL     0.0459
     16 S9         64.2080   43.1183   11.8841 S.3       1 MOL    -0.1054
     17 H161       73.2621   39.2517   15.6703 H         1 MOL     0.1442
     18 H162       73.7481   39.1232   13.9947 H         1 MOL     0.1442
@<TRIPOS>BOND
     1    2    1 ar
     2    1    7 ar
     3    1   12 ar
     4    3    2 ar
     5    2    9 ar
     6   14    3 ar
     7    4    5 1 
     8    4    6 2 
     9    4   14 1 
    10    5   15 2 
    11    6   16 1 
    12    7    8 ar
    13    8   10 ar
    14    8   11 1 
    15    9   10 ar
    16   12   13 ar
    17   13   14 ar
    18   15   16 1 
    19   17   11 1 
    20   18   11 1 
@<TRIPOS>SUBSTRUCTURE
1 MOL         1
@<TRIPOS>MOLECULE
query molecule
   18    20     1     0     0
SMALL
NO_CHARGE

@<TRIPOS>ATOM
      1 C4         70.6777   50.9375   11.6561 C.ar      1 MOL     0.0725
      2 C5         70.8716   49.5806   11.3853 C.ar      1 MOL     0.0009
      3 C6         70.1530   48.9700   10.3571 C.ar      1 MOL     0.0187
      4 C7         68.5047   49.1020    8.5579 C.2       1 MOL    -0.0112
      5 C8         68.7080   49.4735    7.2616 C.2       1 MOL     0.0163
      6 C10        67.6104   48.1059    8.6936 C.2       1 MOL     0.0538
      7 N12        71.3736   51.5484   12.6286 N.ar      1 MOL    -0.2334
      8 C13        72.2756   50.8775   13.3762 C.ar      1 MOL     0.1153
      9 C15        71.7923   48.8554   12.1421 C.ar      1 MOL     0.0138
     10 C14        72.5036   49.5132   13.1531 C.ar      1 MOL     0.0445
     11 N16        72.9339   51.5153   14.3439 N.pl3     1 MOL    -0.3432
     12 C3         69.7682   51.6705   10.8951 C.ar      1 MOL     0.0295
     13 C2         69.0435   51.0573    9.8701 C.ar      1 MOL     0.0108
     14 C1         69.2192   49.6989    9.6022 C.ar      1 MOL    -0.0171
     15 C11        68.0070   48.8513    6.3008 C.2       1 MOL     0.0459
     16 S9         67.0702   47.7311    7.1183 S.3       1 MOL    -0.1054
     17 H161       72.4455   52.1648   14.9436 H         1 MOL     0.1442
     18 H162       73.9211   51.3490   14.4775 H         1 MOL     0.1442
@<TRIPOS>BOND
     1    2    1 ar
     2    1    7 ar
     3    1   12 ar
     4    3    2 ar
     5    2    9 ar
     6   14    3 ar
     7    4    5 1 
     8    4    6 2 
     9    4   14 1 
    10    5   15 2 
    11    6   16 1 
    12    7    8 ar
    13    8   10 ar
    14    8   11 1 
    15    9   10 ar
    16   12   13 ar
    17   13   14 ar
    18   15   16 1 
    19   17   11 1 
    20   18   11 1 
@<TRIPOS>SUBSTRUCTURE
1 MOL         1
@<TRIPOS>MOLECULE
query molecule
   18    20     1     0     0
SMALL
NO_CHARGE

@<TRIPOS>ATOM
      1 C4         64.4230   45.3891   16.3136 C.ar      1 MOL     0.0725
      2 C5         64.4192   45.0333   17.6647 C.ar      1 MOL     0.0009
      3 C6         64.0772   43.7331   18.0376 C.ar      1 MOL     0.0187
      4 C7         63.3863   41.4690   17.4309 C.2       1 MOL    -0.0112
      5 C8         64.3548   40.5376   17.6638 C.2       1 MOL     0.0163
      6 C10        62.1395   41.0032   17.6280 C.2       1 MOL     0.0538
      7 N12        64.7679   46.6296   15.9326 N.ar      1 MOL    -0.2334
      8 C13        65.1170   47.5712   16.8350 C.ar      1 MOL     0.1153
      9 C15        64.7695   45.9831   18.6246 C.ar      1 MOL     0.0138
     10 C14        65.1223   47.2712   18.2036 C.ar      1 MOL     0.0445
     11 N16        65.4363   48.7965   16.4185 N.pl3     1 MOL    -0.3432
     12 C3         64.0859   44.4408   15.3488 C.ar      1 MOL     0.0295
     13 C2         63.7366   43.1408   15.7227 C.ar      1 MOL     0.0108
     14 C1         63.7152   42.7804   17.0709 C.ar      1 MOL    -0.0171
     15 C11        63.9786   39.3008   18.0251 C.2       1 MOL     0.0459
     16 S9         62.3075   39.3665   18.0830 S.3       1 MOL    -0.1054
     17 H161       64.8938   49.2401   15.6912 H         1 MOL     0.1442
     18 H162       66.2208   49.2813   16.8302 H         1 MOL     0.1442
@<TRIPOS>BOND
     1    2    1 ar
     2    1    7 ar
     3    1   12 ar
     4    3    2 ar
     5    2    9 ar
     6   14    3 ar
     7    4    5 1 
     8    4    6 2 
     9    4   14 1 
    10    5   15 2 
    11    6   16 1 
    12    7    8 ar
    13    8   10 ar
    14    8   11 1 
    15    9   10 ar
    16   12   13 ar
    17   13   14 ar
    18   15   16 1 
    19   17   11 1 
    20   18   11 1 
@<TRIPOS>SUBSTRUCTURE
1 MOL         1
@<TRIPOS>MOLECULE
query molecule
   18    20     1     0     0
SMALL
NO_CHARGE

@<TRIPOS>ATOM
      1 C4         67.6413   53.2613   11.7231 C.ar      1 MOL     0.0725
      2 C5         68.7721   53.4537   10.9255 C.ar      1 MOL     0.0009
      3 C6         69.8810   52.6219   11.0838 C.ar      1 MOL     0.0187
      4 C7         70.9822   50.7529   12.2088 C.2       1 MOL    -0.0112
      5 C8         71.6243   50.6437   13.4069 C.2       1 MOL     0.0163
      6 C10        71.4846   49.9436   11.2585 C.2       1 MOL     0.0538
      7 N12        66.5566   54.0386   11.5731 N.ar      1 MOL    -0.2334
      8 C13        66.5220   55.0287   10.6559 C.ar      1 MOL     0.1153
      9 C15        68.7727   54.4712    9.9711 C.ar      1 MOL     0.0138
     10 C14        67.6314   55.2712    9.8353 C.ar      1 MOL     0.0445
     11 N16        65.4331   55.7900   10.5492 N.pl3     1 MOL    -0.3432
     12 C3         67.6300   52.2382   12.6701 C.ar      1 MOL     0.0295
     13 C2         68.7430   51.4098   12.8334 C.ar      1 MOL     0.0108
     14 C1         69.8829   51.6040   12.0518 C.ar      1 MOL    -0.0171
     15 C11        72.6607   49.7961   13.5020 C.2       1 MOL     0.0459
     16 S9         72.7833   49.1054   11.9827 S.3       1 MOL    -0.1054
     17 H161       65.4938   56.7002   10.1156 H         1 MOL     0.1442
     18 H162       64.5473   55.4568   10.9019 H         1 MOL     0.1442
@<TRIPOS>BOND
     1    2    1 ar
     2    1    7 ar
     3    1   12 ar
     4    3    2 ar
     5    2    9 ar
     6   14    3 ar
     7    4    5 1 
     8    4    6 2 
     9    4   14 1 
    10    5   15 2 
    11    6   16 1 
    12    7    8 ar
    13    8   10 ar
    14    8   11 1 
    15    9   10 ar
    16   12   13 ar
    17   13   14 ar
    18   15   16 1 
    19   17   11 1 
    20   18   11 1 
@<TRIPOS>SUBSTRUCTURE
1 MOL         1
@<TRIPOS>MOLECULE
query molecule
   18    20     1     0     0
SMALL
NO_CHARGE

@<TRIPOS>ATOM
      1 C4         68.3203   48.4484    6.9341 C.ar      1 MOL     0.0725
      2 C5         69.1019   47.4160    7.4586 C.ar      1 MOL     0.0009
      3 C6         70.4892   47.5545    7.5087 C.ar      1 MOL     0.0187
      4 C7         72.5025   48.8708    7.0778 C.2       1 MOL    -0.0112
      5 C8         73.0700   49.8336    7.8594 C.2       1 MOL     0.0163
      6 C10        73.4035   48.1003    6.4416 C.2       1 MOL     0.0538
      7 N12        66.9822   48.3428    6.8947 N.ar      1 MOL    -0.2334
      8 C13        66.3496   47.2419    7.3536 C.ar      1 MOL     0.1153
      9 C15        68.4813   46.2616    7.9368 C.ar      1 MOL     0.0138
     10 C14        67.0849   46.1728    7.8823 C.ar      1 MOL     0.0445
     11 N16        65.0207   47.1675    7.2813 N.pl3     1 MOL    -0.3432
     12 C3         68.9337   49.6096    6.4660 C.ar      1 MOL     0.0295
     13 C2         70.3235   49.7454    6.5098 C.ar      1 MOL     0.0108
     14 C1         71.1136   48.7132    7.0180 C.ar      1 MOL    -0.0171
     15 C11        74.4088   49.9241    7.8913 C.2       1 MOL     0.0459
     16 S9         74.9401   48.6972    6.8848 S.3       1 MOL    -0.1054
     17 H161       64.5625   46.2682    7.3179 H         1 MOL     0.1442
     18 H162       64.4720   48.0105    7.1900 H         1 MOL     0.1442
@<TRIPOS>BOND
     1    2    1 ar
     2    1    7 ar
     3    1   12 ar
     4    3    2 ar
     5    2    9 ar
     6   14    3 ar
     7    4    5 1 
     8    4    6 2 
     9    4   14 1 
    10    5   15 2 
    11    6   16 1 
    12    7    8 ar
    13    8   10 ar
    14    8   11 1 
    15    9   10 ar
    16   12   13 ar
    17   13   14 ar
    18   15   16 1 
    19   17   11 1 
    20   18   11 1 
@<TRIPOS>SUBSTRUCTURE
1 MOL         1
@<TRIPOS>MOLECULE
query molecule
   18    20     1     0     0
SMALL
NO_CHARGE

@<TRIPOS>ATOM
      1 C4         73.8333   51.0975    7.4435 C.ar      1 MOL     0.0725
      2 C5         73.0514   52.0206    6.7446 C.ar      1 MOL     0.0009
      3 C6         73.3794   53.3761    6.7835 C.ar      1 MOL     0.0187
      4 C7         74.8251   55.1829    7.5688 C.2       1 MOL    -0.0112
      5 C8         76.0926   55.5922    7.2764 C.2       1 MOL     0.0163
      6 C10        73.9838   56.1992    7.8333 C.2       1 MOL     0.0538
      7 N12        73.5459   49.7864    7.4032 N.ar      1 MOL    -0.2334
      8 C13        72.4969   49.3176    6.6943 C.ar      1 MOL     0.1153
      9 C15        71.9564   51.5713    6.0060 C.ar      1 MOL     0.0138
     10 C14        71.6744   50.2000    5.9816 C.ar      1 MOL     0.0445
     11 N16        72.2339   48.0109    6.6932 N.pl3     1 MOL    -0.3432
     12 C3         74.9361   51.5389    8.1734 C.ar      1 MOL     0.0295
     13 C2         75.2603   52.8971    8.2179 C.ar      1 MOL     0.0108
     14 C1         74.4763   53.8284    7.5354 C.ar      1 MOL    -0.0171
     15 C11        76.3629   56.9067    7.3060 C.2       1 MOL     0.0459
     16 S9         74.9076   57.6290    7.7073 S.3       1 MOL    -0.1054
     17 H161       72.1513   47.5116    7.5673 H         1 MOL     0.1442
     18 H162       72.1172   47.5200    5.8183 H         1 MOL     0.1442
@<TRIPOS>BOND
     1    2    1 ar
     2    1    7 ar
     3    1   12 ar
     4    3    2 ar
     5    2    9 ar
     6   14    3 ar
     7    4    5 1 
     8    4    6 2 
     9    4   14 1 
    10    5   15 2 
    11    6   16 1 
    12    7    8 ar
    13    8   10 ar
    14    8   11 1 
    15    9   10 ar
    16   12   13 ar
    17   13   14 ar
    18   15   16 1 
    19   17   11 1 
    20   18   11 1 
@<TRIPOS>SUBSTRUCTURE
1 MOL         1
@<TRIPOS>MOLECULE
query molecule
   18    20     1     0     0
SMALL
NO_CHARGE

@<TRIPOS>ATOM
      1 C4         67.2619   40.7940   13.2448 C.ar      1 MOL     0.0725
      2 C5         67.0323   41.9505   12.4953 C.ar      1 MOL     0.0009
      3 C6         67.8833   42.2702   11.4370 C.ar      1 MOL     0.0187
      4 C7         69.8340   41.7541   10.0586 C.2       1 MOL    -0.0112
      5 C8         69.4777   41.4724    8.7728 C.2       1 MOL     0.0163
      6 C10        71.0259   42.3705   10.1593 C.2       1 MOL     0.0538
      7 N12        66.4433   40.4584   14.2550 N.ar      1 MOL    -0.2334
      8 C13        65.3796   41.2227   14.5822 C.ar      1 MOL     0.1153
      9 C15        65.9451   42.7664   12.8095 C.ar      1 MOL     0.0138
     10 C14        65.1074   42.3978   13.8693 C.ar      1 MOL     0.0445
     11 N16        64.6004   40.8650   15.6028 N.pl3     1 MOL    -0.3432
     12 C3         68.3394   39.9681   12.9278 C.ar      1 MOL     0.0295
     13 C2         69.1956   40.2920   11.8725 C.ar      1 MOL     0.0108
     14 C1         68.9832   41.4531   11.1277 C.ar      1 MOL    -0.0171
     15 C11        70.3271   41.8023    7.7871 C.2       1 MOL     0.0459
     16 S9         71.6208   42.5228    8.5666 S.3       1 MOL    -0.1054
     17 H161       65.0099   40.6587   16.5027 H         1 MOL     0.1442
     18 H162       63.6005   40.8003   15.4763 H         1 MOL     0.1442
@<TRIPOS>BOND
     1    2    1 ar
     2    1    7 ar
     3    1   12 ar
     4    3    2 ar
     5    2    9 ar
     6   14    3 ar
     7    4    5 1 
     8    4    6 2 
     9    4   14 1 
    10    5   15 2 
    11    6   16 1 
    12    7    8 ar
    13    8   10 ar
    14    8   11 1 
    15    9   10 ar
    16   12   13 ar
    17   13   14 ar
    18   15   16 1 
    19   17   11 1 
    20   18   11 1 
@<TRIPOS>SUBSTRUCTURE
1 MOL         1
@<TRIPOS>MOLECULE
query molecule
   18    20     1     0     0
SMALL
NO_CHARGE

@<TRIPOS>ATOM
      1 C4         73.0998   39.9933   10.2813 C.ar      1 MOL     0.0725
      2 C5         73.5709   41.2330    9.8420 C.ar      1 MOL     0.0009
      3 C6         74.8058   41.7031   10.2902 C.ar      1 MOL     0.0187
      4 C7         76.8211   41.4062   11.6399 C.2       1 MOL    -0.0112
      5 C8         76.9456   42.0963   12.8095 C.2       1 MOL     0.0163
      6 C10        77.9962   41.1859   11.0226 C.2       1 MOL     0.0538
      7 N12        71.9230   39.5143    9.8468 N.ar      1 MOL    -0.2334
      8 C13        71.1572   40.2101    8.9796 C.ar      1 MOL     0.1153
      9 C15        72.8027   41.9813    8.9497 C.ar      1 MOL     0.0138
     10 C14        71.5773   41.4628    8.5133 C.ar      1 MOL     0.0445
     11 N16        69.9869   39.7086    8.5851 N.pl3     1 MOL    -0.3432
     12 C3         73.8687   39.2353   11.1634 C.ar      1 MOL     0.0295
     13 C2         75.1020   39.7092   11.6175 C.ar      1 MOL     0.0108
     14 C1         75.5739   40.9533   11.1961 C.ar      1 MOL    -0.0171
     15 C11        78.1707   42.4883   13.1932 C.2       1 MOL     0.0459
     16 S9         79.1921   41.9163   11.9974 S.3       1 MOL    -0.1054
     17 H161       69.9523   39.0466    7.8231 H         1 MOL     0.1442
     18 H162       69.1348   39.9906    9.0481 H         1 MOL     0.1442
@<TRIPOS>BOND
     1    2    1 ar
     2    1    7 ar
     3    1   12 ar
     4    3    2 ar
     5    2    9 ar
     6   14    3 ar
     7    4    5 1 
     8    4    6 2 
     9    4   14 1 
    10    5   15 2 
    11    6   16 1 
    12    7    8 ar
    13    8   10 ar
    14    8   11 1 
    15    9   10 ar
    16   12   13 ar
    17   13   14 ar
    18   15   16 1 
    19   17   11 1 
    20   18   11 1 
@<TRIPOS>SUBSTRUCTURE
1 MOL         1
@<TRIPOS>MOLECULE
query molecule
   18    20     1     0     0
SMALL
NO_CHARGE

@<TRIPOS>ATOM
      1 C4         76.8703   41.6555   12.2761 C.ar      1 MOL     0.0725
      2 C5         77.9124   42.0971   13.0953 C.ar      1 MOL     0.0009
      3 C6         77.7856   42.0145   14.4822 C.ar      1 MOL     0.0187
      4 C7         76.4795   41.4079   16.4565 C.2       1 MOL    -0.0112
      5 C8         75.3768   41.8903   17.0976 C.2       1 MOL     0.0163
      6 C10        77.3568   40.8078   17.2816 C.2       1 MOL     0.0538
      7 N12        76.9804   41.7084   10.9388 N.ar      1 MOL    -0.2334
      8 C13        78.0920   42.1901   10.3429 C.ar      1 MOL     0.1153
      9 C15        79.0736   42.6058   12.5130 C.ar      1 MOL     0.0138
     10 C14        79.1641   42.6542   11.1164 C.ar      1 MOL     0.0445
     11 N16        78.1562   42.2424    9.0126 N.pl3     1 MOL    -0.3432
     12 C3         75.7124   41.1346   12.8519 C.ar      1 MOL     0.0295
     13 C2         75.5827   41.0584   14.2408 C.ar      1 MOL     0.0108
     14 C1         76.6120   41.5111   15.0675 C.ar      1 MOL    -0.0171
     15 C11        75.2969   41.7448   18.4296 C.2       1 MOL     0.0459
     16 S9         76.6978   40.9322   18.8514 S.3       1 MOL    -0.1054
     17 H161       78.4330   41.4250    8.4878 H         1 MOL     0.1442
     18 H162       77.9281   43.0994    8.5292 H         1 MOL     0.1442
@<TRIPOS>BOND
     1    2    1 ar
     2    1    7 ar
     3    1   12 ar
     4    3    2 ar
     5    2    9 ar
     6   14    3 ar
     7    4    5 1 
     8    4    6 2 
     9    4   14 1 
    10    5   15 2 
    11    6   16 1 
    12    7    8 ar
    13    8   10 ar
    14    8   11 1 
    15    9   10 ar
    16   12   13 ar
    17   13   14 ar
    18   15   16 1 
    19   17   11 1 
    20   18   11 1 
@<TRIPOS>SUBSTRUCTURE
1 MOL         1
@<TRIPOS>MOLECULE
query molecule
   18    20     1     0     0
SMALL
NO_CHARGE

@<TRIPOS>ATOM
      1 C4         73.5244   43.5091    8.0278 C.ar      1 MOL     0.0725
      2 C5         73.7588   43.4238    6.6531 C.ar      1 MOL     0.0009
      3 C6         75.0654   43.4882    6.1681 C.ar      1 MOL     0.0187
      4 C7         77.4653   43.7085    6.5721 C.2       1 MOL    -0.0112
      5 C8         77.8945   42.8639    5.5912 C.2       1 MOL     0.0163
      6 C10        78.4064   44.5825    6.9732 C.2       1 MOL     0.0538
      7 N12        72.2760   43.4298    8.5162 N.ar      1 MOL    -0.2334
      8 C13        71.2109   43.2699    7.7022 C.ar      1 MOL     0.1153
      9 C15        72.6805   43.2638    5.7825 C.ar      1 MOL     0.0138
     10 C14        71.3876   43.1871    6.3148 C.ar      1 MOL     0.0445
     11 N16        69.9857   43.2130    8.2241 N.pl3     1 MOL    -0.3432
     12 C3         74.5988   43.6566    8.9038 C.ar      1 MOL     0.0295
     13 C2         75.9066   43.7280    8.4175 C.ar      1 MOL     0.0108
     14 C1         76.1494   43.6591    7.0449 C.ar      1 MOL    -0.0171
     15 C11        79.1626   42.9715    5.1646 C.2       1 MOL     0.0459
     16 S9         79.8049   44.2311    6.0597 S.3       1 MOL    -0.1054
     17 H161       69.4471   42.3612    8.1567 H         1 MOL     0.1442
     18 H162       69.5958   44.0215    8.6870 H         1 MOL     0.1442
@<TRIPOS>BOND
     1    2    1 ar
     2    1    7 ar
     3    1   12 ar
     4    3    2 ar
     5    2    9 ar
     6   14    3 ar
     7    4    5 1 
     8    4    6 2 
     9    4   14 1 
    10    5   15 2 
    11    6   16 1 
    12    7    8 ar
    13    8   10 ar
    14    8   11 1 
    15    9   10 ar
    16   12   13 ar
    17   13   14 ar
    18   15   16 1 
    19   17   11 1 
    20   18   11 1 
@<TRIPOS>SUBSTRUCTURE
1 MOL         1
@<TRIPOS>MOLECULE
query molecule
   18    20     1     0     0
SMALL
NO_CHARGE

@<TRIPOS>ATOM
      1 C4         72.6672   47.0384    6.1717 C.ar      1 MOL     0.0725
      2 C5         71.8963   45.9372    6.5525 C.ar      1 MOL     0.0009
      3 C6         70.6030   46.1319    7.0382 C.ar      1 MOL     0.0187
      4 C7         68.7707   47.6329    7.6392 C.2       1 MOL    -0.0112
      5 C8         67.8663   46.6132    7.6839 C.2       1 MOL     0.0163
      6 C10        68.2916   48.7928    8.1246 C.2       1 MOL     0.0538
      7 N12        73.9070   46.8711    5.6836 N.ar      1 MOL    -0.2334
      8 C13        74.4500   45.6425    5.5483 C.ar      1 MOL     0.1153
      9 C15        72.4282   44.6532    6.4311 C.ar      1 MOL     0.0138
     10 C14        73.7244   44.5038    5.9228 C.ar      1 MOL     0.0445
     11 N16        75.6903   45.5188    5.0761 N.pl3     1 MOL    -0.3432
     12 C3         72.1367   48.3232    6.2790 C.ar      1 MOL     0.0295
     13 C2         70.8441   48.5185    6.7719 C.ar      1 MOL     0.0108
     14 C1         70.0721   47.4258    7.1692 C.ar      1 MOL    -0.0171
     15 C11        66.6387   46.8680    8.1631 C.2       1 MOL     0.0459
     16 S9         66.6777   48.4861    8.5883 S.3       1 MOL    -0.1054
     17 H161       75.8496   45.0647    4.1881 H         1 MOL     0.1442
     18 H162       76.4707   45.8792    5.6062 H         1 MOL     0.1442
@<TRIPOS>BOND
     1    2    1 ar
     2    1    7 ar
     3    1   12 ar
     4    3    2 ar
     5    2    9 ar
     6   14    3 ar
     7    4    5 1 
     8    4    6 2 
     9    4   14 1 
    10    5   15 2 
    11    6   16 1 
    12    7    8 ar
    13    8   10 ar
    14    8   11 1 
    15    9   10 ar
    16   12   13 ar
    17   13   14 ar
    18   15   16 1 
    19   17   11 1 
    20   18   11 1 
@<TRIPOS>SUBSTRUCTURE
1 MOL         1
@<TRIPOS>MOLECULE
query molecule
   18    20     1     0     0
SMALL
NO_CHARGE

@<TRIPOS>ATOM
      1 C4         62.4540   46.3470   10.2040 C.ar      1 MOL     0.0725
      2 C5         63.4297   47.1923   10.7382 C.ar      1 MOL     0.0009
      3 C6         64.5403   47.5411    9.9691 C.ar      1 MOL     0.0187
      4 C7         65.8017   47.3907    7.8816 C.2       1 MOL    -0.0112
      5 C8         66.7773   46.4857    7.5834 C.2       1 MOL     0.0163
      6 C10        65.9978   48.5939    7.3120 C.2       1 MOL     0.0538
      7 N12        61.3681   46.0149   10.9207 N.ar      1 MOL    -0.2334
      8 C13        61.1839   46.4794   12.1749 C.ar      1 MOL     0.1153
      9 C15        63.2739   47.6865   12.0335 C.ar      1 MOL     0.0138
     10 C14        62.1350   47.3236   12.7629 C.ar      1 MOL     0.0445
     11 N16        60.1013   46.1129   12.8607 N.pl3     1 MOL    -0.3432
     12 C3         62.5979   45.8599    8.9056 C.ar      1 MOL     0.0295
     13 C2         63.7135   46.2036    8.1381 C.ar      1 MOL     0.0108
     14 C1         64.7010   47.0351    8.6686 C.ar      1 MOL    -0.0171
     15 C11        67.7994   46.8797    6.8076 C.2       1 MOL     0.0459
     16 S9         67.4604   48.4767    6.4398 S.3       1 MOL    -0.1054
     17 H161       60.1865   45.4643   13.6302 H         1 MOL     0.1442
     18 H162       59.1957   46.4839   12.6109 H         1 MOL     0.1442
@<TRIPOS>BOND
     1    2    1 ar
     2    1    7 ar
     3    1   12 ar
     4    3    2 ar
     5    2    9 ar
     6   14    3 ar
     7    4    5 1 
     8    4    6 2 
     9    4   14 1 
    10    5   15 2 
    11    6   16 1 
    12    7    8 ar
    13    8   10 ar
    14    8   11 1 
    15    9   10 ar
    16   12   13 ar
    17   13   14 ar
    18   15   16 1 
    19   17   11 1 
    20   18   11 1 
@<TRIPOS>SUBSTRUCTURE
1 MOL         1
@<TRIPOS>MOLECULE
query molecule
   18    20     1     0     0
SMALL
NO_CHARGE

@<TRIPOS>ATOM
      1 C4         63.6701   43.4183   15.3291 C.ar      1 MOL     0.0725
      2 C5         63.9807   42.0693   15.1400 C.ar      1 MOL     0.0009
      3 C6         64.9942   41.7099   14.2510 C.ar      1 MOL     0.0187
      4 C7         66.7234   42.3419   12.6442 C.2       1 MOL    -0.0112
      5 C8         67.8701   41.7566   13.0939 C.2       1 MOL     0.0163
      6 C10        66.6896   42.4920   11.3075 C.2       1 MOL     0.0538
      7 N12        62.7115   43.7860   16.1945 N.ar      1 MOL    -0.2334
      8 C13        62.0163   42.8719   16.9044 C.ar      1 MOL     0.1153
      9 C15        63.2784   41.0977   15.8534 C.ar      1 MOL     0.0138
     10 C14        62.2807   41.5049   16.7476 C.ar      1 MOL     0.0445
     11 N16        61.0602   43.2757   17.7408 N.pl3     1 MOL    -0.3432
     12 C3         64.3769   44.3945   14.6284 C.ar      1 MOL     0.0295
     13 C2         65.3870   44.0343   13.7330 C.ar      1 MOL     0.0108
     14 C1         65.6940   42.6886   13.5260 C.ar      1 MOL    -0.0171
     15 C11        68.8144   41.4287   12.1981 C.2       1 MOL     0.0459
     16 S9         68.1712   41.8803   10.7206 S.3       1 MOL    -0.1054
     17 H161       60.0890   43.1248   17.5083 H         1 MOL     0.1442
     18 H162       61.3070   43.7325   18.6072 H         1 MOL     0.1442
@<TRIPOS>BOND
     1    2    1 ar
     2    1    7 ar
     3    1   12 ar
     4    3    2 ar
     5    2    9 ar
     6   14    3 ar
     7    4    5 1 
     8    4    6 2 
     9    4   14 1 
    10    5   15 2 
    11    6   16 1 
    12    7    8 ar
    13    8   10 ar
    14    8   11 1 
    15    9   10 ar
    16   12   13 ar
    17   13   14 ar
    18   15   16 1 
    19   17   11 1 
    20   18   11 1 
@<TRIPOS>SUBSTRUCTURE
1 MOL         1
@<TRIPOS>MOLECULE
query molecule
   18    20     1     0     0
SMALL
NO_CHARGE

@<TRIPOS>ATOM
      1 C4         68.1186   50.4485    8.6603 C.ar      1 MOL     0.0725
      2 C5         68.3266   49.3844    9.5414 C.ar      1 MOL     0.0009
      3 C6         69.0078   49.6003   10.7396 C.ar      1 MOL     0.0187
      4 C7         70.1771   51.1057   12.2687 C.2       1 MOL    -0.0112
      5 C8         71.5133   50.8621   12.3915 C.2       1 MOL     0.0163
      6 C10        69.6234   51.6174   13.3831 C.2       1 MOL     0.0538
      7 N12        67.4484   50.2658    7.5111 N.ar      1 MOL    -0.2334
      8 C13        66.9589   49.0555    7.1670 C.ar      1 MOL     0.1153
      9 C15        67.8388   48.1188    9.2148 C.ar      1 MOL     0.0138
     10 C14        67.1461   47.9517    8.0094 C.ar      1 MOL     0.0445
     11 N16        66.3141   48.9106    6.0094 N.pl3     1 MOL    -0.3432
     12 C3         68.5927   51.7183    8.9868 C.ar      1 MOL     0.0295
     13 C2         69.2810   51.9330   10.1835 C.ar      1 MOL     0.0108
     14 C1         69.5070   50.8729   11.0628 C.ar      1 MOL    -0.0171
     15 C11        72.1054   51.1232   13.5675 C.2       1 MOL     0.0459
     16 S9         70.8795   51.7266   14.5338 S.3       1 MOL    -0.1054
     17 H161       66.7085   49.2905    5.1607 H         1 MOL     0.1442
     18 H162       65.4313   48.4210    5.9810 H         1 MOL     0.1442
@<TRIPOS>BOND
     1    2    1 ar
     2    1    7 ar
     3    1   12 ar
     4    3    2 ar
     5    2    9 ar
     6   14    3 ar
     7    4    5 1 
     8    4    6 2 
     9    4   14 1 
    10    5   15 2 
    11    6   16 1 
    12    7    8 ar
    13    8   10 ar
    14    8   11 1 
    15    9   10 ar
    16   12   13 ar
    17   13   14 ar
    18   15   16 1 
    19   17   11 1 
    20   18   11 1 
@<TRIPOS>SUBSTRUCTURE
1 MOL         1
@<TRIPOS>MOLECULE
query molecule
   18    20     1     0     0
SMALL
NO_CHARGE

@<TRIPOS>ATOM
      1 C4         68.5614   52.5918   11.1290 C.ar      1 MOL     0.0725
      2 C5         67.2533   53.0791   11.1892 C.ar      1 MOL     0.0009
      3 C6         66.2623   52.3264   11.8200 C.ar      1 MOL     0.0187
      4 C7         65.5777   50.3156   13.0281 C.2       1 MOL    -0.0112
      5 C8         64.7280   49.5116   12.3271 C.2       1 MOL     0.0163
      6 C10        65.3931   50.2551   14.3595 C.2       1 MOL     0.0538
      7 N12        69.5337   53.3095   10.5435 N.ar      1 MOL    -0.2334
      8 C13        69.2830   54.5165    9.9930 C.ar      1 MOL     0.1153
      9 C15        66.9577   54.3206   10.6257 C.ar      1 MOL     0.0138
     10 C14        67.9873   55.0492   10.0176 C.ar      1 MOL     0.0445
     11 N16        70.2714   55.1907    9.4056 N.pl3     1 MOL    -0.3432
     12 C3         68.8656   51.3575   11.7013 C.ar      1 MOL     0.0295
     13 C2         67.8717   50.6007   12.3268 C.ar      1 MOL     0.0108
     14 C1         66.5591   51.0722   12.3784 C.ar      1 MOL    -0.0171
     15 C11        63.8197   48.7944   13.0070 C.2       1 MOL     0.0459
     16 S9         64.1019   49.1678   14.6137 S.3       1 MOL    -0.1054
     17 H161       70.8849   54.7222    8.7543 H         1 MOL     0.1442
     18 H162       70.4069   56.1701    9.6118 H         1 MOL     0.1442
@<TRIPOS>BOND
     1    2    1 ar
     2    1    7 ar
     3    1   12 ar
     4    3    2 ar
     5    2    9 ar
     6   14    3 ar
     7    4    5 1 
     8    4    6 2 
     9    4   14 1 
    10    5   15 2 
    11    6   16 1 
    12    7    8 ar
    13    8   10 ar
    14    8   11 1 
    15    9   10 ar
    16   12   13 ar
    17   13   14 ar
    18   15   16 1 
    19   17   11 1 
    20   18   11 1 
@<TRIPOS>SUBSTRUCTURE
1 MOL         1
@<TRIPOS>MOLECULE
query molecule
   18    20     1     0     0
SMALL
NO_CHARGE

@<TRIPOS>ATOM
      1 C4         63.8977   47.4239    8.3808 C.ar      1 MOL     0.0725
      2 C5         64.3556   47.9526    9.5903 C.ar      1 MOL     0.0009
      3 C6         63.7137   47.6134   10.7817 C.ar      1 MOL     0.0187
      4 C7         61.9550   46.4006   11.9681 C.2       1 MOL    -0.0112
      5 C8         62.6672   46.1176   13.0961 C.2       1 MOL     0.0163
      6 C10        60.6230   46.3387   12.1484 C.2       1 MOL     0.0538
      7 N12        64.5135   47.7226    7.2255 N.ar      1 MOL    -0.2334
      8 C13        65.5866   48.5413    7.1914 C.ar      1 MOL     0.1153
      9 C15        65.4589   48.8064    9.5912 C.ar      1 MOL     0.0138
     10 C14        66.0826   49.1062    8.3738 C.ar      1 MOL     0.0445
     11 N16        66.1598   48.8276    6.0226 N.pl3     1 MOL    -0.3432
     12 C3         62.8033   46.5603    8.3749 C.ar      1 MOL     0.0295
     13 C2         62.1562   46.2262    9.5672 C.ar      1 MOL     0.0108
     14 C1         62.5969   46.7613   10.7785 C.ar      1 MOL    -0.0171
     15 C11        61.9952   45.7965   14.2128 C.2       1 MOL     0.0459
     16 S9         60.3820   45.8899   13.7776 S.3       1 MOL    -0.1054
     17 H161       66.7973   48.1692    5.5981 H         1 MOL     0.1442
     18 H162       65.9566   49.7029    5.5615 H         1 MOL     0.1442
@<TRIPOS>BOND
     1    2    1 ar
     2    1    7 ar
     3    1   12 ar
     4    3    2 ar
     5    2    9 ar
     6   14    3 ar
     7    4    5 1 
     8    4    6 2 
     9    4   14 1 
    10    5   15 2 
    11    6   16 1 
    12    7    8 ar
    13    8   10 ar
    14    8   11 1 
    15    9   10 ar
    16   12   13 ar
    17   13   14 ar
    18   15   16 1 
    19   17   11 1 
    20   18   11 1 
@<TRIPOS>SUBSTRUCTURE
1 MOL         1
@<TRIPOS>MOLECULE
query molecule
   18    20     1     0     0
SMALL
NO_CHARGE

@<TRIPOS>ATOM
      1 C4         61.6652   46.3097    9.5206 C.ar      1 MOL     0.0725
      2 C5         61.9490   44.9909    9.8843 C.ar      1 MOL     0.0009
      3 C6         62.8393   44.7365   10.9279 C.ar      1 MOL     0.0187
      4 C7         64.3535   45.5501   12.6648 C.2       1 MOL    -0.0112
      5 C8         64.6592   44.2787   13.0518 C.2       1 MOL     0.0163
      6 C10        65.0111   46.4933   13.3636 C.2       1 MOL     0.0538
      7 N12        60.7965   46.5761    8.5319 N.ar      1 MOL    -0.2334
      8 C13        60.1741   45.5865    7.8566 C.ar      1 MOL     0.1153
      9 C15        61.3277   43.9434    9.2038 C.ar      1 MOL     0.0138
     10 C14        60.4281   44.2457    8.1741 C.ar      1 MOL     0.0445
     11 N16        59.3316   45.8911    6.8697 N.pl3     1 MOL    -0.3432
     12 C3         62.2735   47.3610   10.2051 C.ar      1 MOL     0.0295
     13 C2         63.1703   47.1061   11.2455 C.ar      1 MOL     0.0108
     14 C1         63.4717   45.7918   11.6058 C.ar      1 MOL    -0.0171
     15 C11        65.5270   44.1090   14.0617 C.2       1 MOL     0.0459
     16 S9         65.9723   45.6608   14.5024 S.3       1 MOL    -0.1054
     17 H161       58.3870   46.1786    7.0828 H         1 MOL     0.1442
     18 H162       59.6376   45.8346    5.9089 H         1 MOL     0.1442
@<TRIPOS>BOND
     1    2    1 ar
     2    1    7 ar
     3    1   12 ar
     4    3    2 ar
     5    2    9 ar
     6   14    3 ar
     7    4    5 1 
     8    4    6 2 
     9    4   14 1 
    10    5   15 2 
    11    6   16 1 
    12    7    8 ar
    13    8   10 ar
    14    8   11 1 
    15    9   10 ar
    16   12   13 ar
    17   13   14 ar
    18   15   16 1 
    19   17   11 1 
    20   18   11 1 
@<TRIPOS>SUBSTRUCTURE
1 MOL         1
@<TRIPOS>MOLECULE
query molecule
   18    20     1     0     0
SMALL
NO_CHARGE

@<TRIPOS>ATOM
      1 C4         76.7168   41.9137   12.8425 C.ar      1 MOL     0.0725
      2 C5         77.7272   42.3533   13.7016 C.ar      1 MOL     0.0009
      3 C6         77.5905   42.1773   15.0788 C.ar      1 MOL     0.0187
      4 C7         76.2962   41.3840   16.9937 C.2       1 MOL    -0.0112
      5 C8         75.2026   41.8474   17.6639 C.2       1 MOL     0.0163
      6 C10        77.1547   40.7061   17.7773 C.2       1 MOL     0.0538
      7 N12        76.8378   42.0562   11.5128 N.ar      1 MOL    -0.2334
      8 C13        77.9300   42.6285   10.9630 C.ar      1 MOL     0.1153
      9 C15        78.8675   42.9541   13.1677 C.ar      1 MOL     0.0138
     10 C14        78.9697   43.0949   11.7783 C.ar      1 MOL     0.0445
     11 N16        78.0052   42.7677    9.6396 N.pl3     1 MOL    -0.3432
     12 C3         75.5804   41.3014   13.3692 C.ar      1 MOL     0.0295
     13 C2         75.4405   41.1314   14.7488 C.ar      1 MOL     0.0108
     14 C1         76.4376   41.5810   15.6158 C.ar      1 MOL    -0.0171
     15 C11        75.1131   41.6110   18.9822 C.2       1 MOL     0.0459
     16 S9         76.4917   40.7364   19.3500 S.3       1 MOL    -0.1054
     17 H161       78.8387   43.1530    9.2188 H         1 MOL     0.1442
     18 H162       77.2288   42.4879    9.0574 H         1 MOL     0.1442
@<TRIPOS>BOND
     1    2    1 ar
     2    1    7 ar
     3    1   12 ar
     4    3    2 ar
     5    2    9 ar
     6   14    3 ar
     7    4    5 1 
     8    4    6 2 
     9    4   14 1 
    10    5   15 2 
    11    6   16 1 
    12    7    8 ar
    13    8   10 ar
    14    8   11 1 
    15    9   10 ar
    16   12   13 ar
    17   13   14 ar
    18   15   16 1 
    19   17   11 1 
    20   18   11 1 
@<TRIPOS>SUBSTRUCTURE
1 MOL         1
@<TRIPOS>MOLECULE
query molecule
   18    20     1     0     0
SMALL
NO_CHARGE

@<TRIPOS>ATOM
      1 C4         73.9080   51.1543    7.7723 C.ar      1 MOL     0.0725
      2 C5         73.1555   52.0803    7.0455 C.ar      1 MOL     0.0009
      3 C6         73.5537   53.4168    7.0047 C.ar      1 MOL     0.0187
      4 C7         75.1116   55.1827    7.6572 C.2       1 MOL    -0.0112
      5 C8         74.2109   56.2016    7.5558 C.2       1 MOL     0.0163
      6 C10        76.3860   55.6044    7.7503 C.2       1 MOL     0.0538
      7 N12        73.5526   49.8599    7.8084 N.ar      1 MOL    -0.2334
      8 C13        72.4616   49.4113    7.1518 C.ar      1 MOL     0.1153
      9 C15        72.0188   51.6521    6.3593 C.ar      1 MOL     0.0138
     10 C14        71.6660   50.2981    6.4144 C.ar      1 MOL     0.0445
     11 N16        72.1319   48.1220    7.2261 N.pl3     1 MOL    -0.3432
     12 C3         75.0519   51.5738    8.4500 C.ar      1 MOL     0.0295
     13 C2         75.4466   52.9135    8.4148 C.ar      1 MOL     0.0108
     14 C1         74.6928   53.8486    7.7040 C.ar      1 MOL    -0.0171
     15 C11        74.6713   57.4622    7.5350 C.2       1 MOL     0.0459
     16 S9         76.3318   57.3088    7.6750 S.3       1 MOL    -0.1054
     17 H161       71.3438   47.7711    6.7007 H         1 MOL     0.1442
     18 H162       72.6700   47.4958    7.8078 H         1 MOL     0.1442
@<TRIPOS>BOND
     1    2    1 ar
     2    1    7 ar
     3    1   12 ar
     4    3    2 ar
     5    2    9 ar
     6   14    3 ar
     7    4    5 1 
     8    4    6 2 
     9    4   14 1 
    10    5   15 2 
    11    6   16 1 
    12    7    8 ar
    13    8   10 ar
    14    8   11 1 
    15    9   10 ar
    16   12   13 ar
    17   13   14 ar
    18   15   16 1 
    19   17   11 1 
    20   18   11 1 
@<TRIPOS>SUBSTRUCTURE
1 MOL         1
@<TRIPOS>MOLECULE
query molecule
   18    20     1     0     0
SMALL
NO_CHARGE

@<TRIPOS>ATOM
      1 C4         69.4714   48.0283    9.3603 C.ar      1 MOL     0.0725
      2 C5         70.8359   47.8561    9.6060 C.ar      1 MOL     0.0009
      3 C6         71.4579   48.5985   10.6102 C.ar      1 MOL     0.0187
      4 C7         71.3410   50.2732   12.3860 C.2       1 MOL    -0.0112
      5 C8         72.3223   49.7292   13.1612 C.2       1 MOL     0.0163
      6 C10        71.0796   51.5597   12.6809 C.2       1 MOL     0.0538
      7 N12        68.8499   47.3095    8.4115 N.ar      1 MOL    -0.2334
      8 C13        69.5173   46.4044    7.6643 C.ar      1 MOL     0.1153
      9 C15        71.5576   46.9329    8.8489 C.ar      1 MOL     0.0138
     10 C14        70.8887   46.1974    7.8628 C.ar      1 MOL     0.0445
     11 N16        68.8686   45.7228    6.7203 N.pl3     1 MOL    -0.3432
     12 C3         68.7422   48.9403   10.1220 C.ar      1 MOL     0.0295
     13 C2         69.3666   49.6888   11.1228 C.ar      1 MOL     0.0108
     14 C1         70.7324   49.5347   11.3654 C.ar      1 MOL    -0.0171
     15 C11        72.8828   50.4928   14.1123 C.2       1 MOL     0.0459
     16 S9         72.1168   51.9740   13.9718 S.3       1 MOL    -0.1054
     17 H161       69.3122   44.9339    6.2720 H         1 MOL     0.1442
     18 H162       67.9334   45.9952    6.4532 H         1 MOL     0.1442
@<TRIPOS>BOND
     1    2    1 ar
     2    1    7 ar
     3    1   12 ar
     4    3    2 ar
     5    2    9 ar
     6   14    3 ar
     7    4    5 1 
     8    4    6 2 
     9    4   14 1 
    10    5   15 2 
    11    6   16 1 
    12    7    8 ar
    13    8   10 ar
    14    8   11 1 
    15    9   10 ar
    16   12   13 ar
    17   13   14 ar
    18   15   16 1 
    19   17   11 1 
    20   18   11 1 
@<TRIPOS>SUBSTRUCTURE
1 MOL         1
@<TRIPOS>MOLECULE
query molecule
   18    20     1     0     0
SMALL
NO_CHARGE

@<TRIPOS>ATOM
      1 C4         69.7714   48.0683    7.8849 C.ar      1 MOL     0.0725
      2 C5         68.4941   48.2337    8.4262 C.ar      1 MOL     0.0009
      3 C6         68.1745   49.4132    9.0994 C.ar      1 MOL     0.0187
      4 C7         68.8162   51.6248    9.9170 C.2       1 MOL    -0.0112
      5 C8         68.7443   52.8060    9.2394 C.2       1 MOL     0.0163
      6 C10        68.5158   51.7399   11.2235 C.2       1 MOL     0.0538
      7 N12        70.0928   46.9488    7.2166 N.ar      1 MOL    -0.2334
      8 C13        69.2011   45.9492    7.0487 C.ar      1 MOL     0.1153
      9 C15        67.5492   47.2183    8.2759 C.ar      1 MOL     0.0138
     10 C14        67.9085   46.0586    7.5781 C.ar      1 MOL     0.0445
     11 N16        69.5636   44.8461    6.3942 N.pl3     1 MOL    -0.3432
     12 C3         70.7161   49.0846    8.0210 C.ar      1 MOL     0.0295
     13 C2         70.3981   50.2628    8.7012 C.ar      1 MOL     0.0108
     14 C1         69.1296   50.4308    9.2585 C.ar      1 MOL    -0.0171
     15 C11        68.4201   53.9157    9.9215 C.2       1 MOL     0.0459
     16 S9         68.1807   53.3918   11.4928 S.3       1 MOL    -0.1054
     17 H161       68.8660   44.1690    6.1205 H         1 MOL     0.1442
     18 H162       70.5359   44.6874    6.1718 H         1 MOL     0.1442
@<TRIPOS>BOND
     1    2    1 ar
     2    1    7 ar
     3    1   12 ar
     4    3    2 ar
     5    2    9 ar
     6   14    3 ar
     7    4    5 1 
     8    4    6 2 
     9    4   14 1 
    10    5   15 2 
    11    6   16 1 
    12    7    8 ar
    13    8   10 ar
    14    8   11 1 
    15    9   10 ar
    16   12   13 ar
    17   13   14 ar
    18   15   16 1 
    19   17   11 1 
    20   18   11 1 
@<TRIPOS>SUBSTRUCTURE
1 MOL         1
@<TRIPOS>MOLECULE
query molecule
   18    20     1     0     0
SMALL
NO_CHARGE

@<TRIPOS>ATOM
      1 C4         67.0542   40.9365   13.5797 C.ar      1 MOL     0.0725
      2 C5         66.9395   42.0111   12.6942 C.ar      1 MOL     0.0009
      3 C6         67.9363   42.2351   11.7442 C.ar      1 MOL     0.0187
      4 C7         70.0652   41.6088   10.7211 C.2       1 MOL    -0.0112
      5 C8         69.7536   41.7849    9.4052 C.2       1 MOL     0.0163
      6 C10        71.3836   41.6999   10.9741 C.2       1 MOL     0.0538
      7 N12        66.0965   40.6922   14.4886 N.ar      1 MOL    -0.2334
      8 C13        64.9987   41.4726   14.5810 C.ar      1 MOL     0.1153
      9 C15        65.8205   42.8413   12.7653 C.ar      1 MOL     0.0138
     10 C14        64.8365   42.5688   13.7236 C.ar      1 MOL     0.0445
     11 N16        64.0783   41.2078   15.5081 N.pl3     1 MOL    -0.3432
     12 C3         68.1640   40.0959   13.5054 C.ar      1 MOL     0.0295
     13 C2         69.1655   40.3244   12.5586 C.ar      1 MOL     0.0108
     14 C1         69.0671   41.4044   11.6799 C.ar      1 MOL    -0.0171
     15 C11        70.7529   41.9964    8.5343 C.2       1 MOL     0.0459
     16 S9         72.1398   41.9864    9.4708 S.3       1 MOL    -0.1054
     17 H161       64.3608   41.0006   16.4554 H         1 MOL     0.1442
     18 H162       63.0985   41.2144   15.2633 H         1 MOL     0.1442
@<TRIPOS>BOND
     1    2    1 ar
     2    1    7 ar
     3    1   12 ar
     4    3    2 ar
     5    2    9 ar
     6   14    3 ar
     7    4    5 1 
     8    4    6 2 
     9    4   14 1 
    10    5   15 2 
    11    6   16 1 
    12    7    8 ar
    13    8   10 ar
    14    8   11 1 
    15    9   10 ar
    16   12   13 ar
    17   13   14 ar
    18   15   16 1 
    19   17   11 1 
    20   18   11 1 
@<TRIPOS>SUBSTRUCTURE
1 MOL         1
@<TRIPOS>MOLECULE
query molecule
   18    20     1     0     0
SMALL
NO_CHARGE

@<TRIPOS>ATOM
      1 C4         74.7318   40.2966   19.2977 C.ar      1 MOL     0.0725
      2 C5         74.0123   41.2597   18.5859 C.ar      1 MOL     0.0009
      3 C6         72.6974   41.5514   18.9502 C.ar      1 MOL     0.0187
      4 C7         70.7670   41.1676   20.3985 C.2       1 MOL    -0.0112
      5 C8         70.3697   42.4529   20.6215 C.2       1 MOL     0.0163
      6 C10        69.7750   40.2699   20.5421 C.2       1 MOL     0.0538
      7 N12        76.0046   40.0152   18.9754 N.ar      1 MOL    -0.2334
      8 C13        76.6283   40.6454   17.9572 C.ar      1 MOL     0.1153
      9 C15        74.6242   41.9266   17.5243 C.ar      1 MOL     0.0138
     10 C14        75.9511   41.6138   17.2045 C.ar      1 MOL     0.0445
     11 N16        77.8870   40.3257   17.6569 N.pl3     1 MOL    -0.3432
     12 C3         74.1298   39.6357   20.3675 C.ar      1 MOL     0.0295
     13 C2         72.8109   39.9228   20.7278 C.ar      1 MOL     0.0108
     14 C1         72.0791   40.8724   20.0131 C.ar      1 MOL    -0.0171
     15 C11        69.0928   42.6761   20.9702 C.2       1 MOL     0.0459
     16 S9         68.3866   41.1590   20.9845 S.3       1 MOL    -0.1054
     17 H161       78.1624   39.3555   17.6025 H         1 MOL     0.1442
     18 H162       78.5653   41.0536   17.4837 H         1 MOL     0.1442
@<TRIPOS>BOND
     1    2    1 ar
     2    1    7 ar
     3    1   12 ar
     4    3    2 ar
     5    2    9 ar
     6   14    3 ar
     7    4    5 1 
     8    4    6 2 
     9    4   14 1 
    10    5   15 2 
    11    6   16 1 
    12    7    8 ar
    13    8   10 ar
    14    8   11 1 
    15    9   10 ar
    16   12   13 ar
    17   13   14 ar
    18   15   16 1 
    19   17   11 1 
    20   18   11 1 
@<TRIPOS>SUBSTRUCTURE
1 MOL         1
@<TRIPOS>MOLECULE
query molecule
   18    20     1     0     0
SMALL
NO_CHARGE

@<TRIPOS>ATOM
      1 C4         61.6810   45.6061    8.9441 C.ar      1 MOL     0.0725
      2 C5         62.9462   45.1349    9.3037 C.ar      1 MOL     0.0009
      3 C6         63.8228   45.9670   10.0007 C.ar      1 MOL     0.0187
      4 C7         64.3203   48.1214   11.0411 C.2       1 MOL    -0.0112
      5 C8         64.1415   48.3492   12.3737 C.2       1 MOL     0.0163
      6 C10        65.4054   48.7357   10.5356 C.2       1 MOL     0.0538
      7 N12        60.8155   44.8147    8.2902 N.ar      1 MOL    -0.2334
      8 C13        61.1360   43.5465    7.9560 C.ar      1 MOL     0.1153
      9 C15        63.3125   43.8309    8.9695 C.ar      1 MOL     0.0138
     10 C14        62.3944   43.0254    8.2845 C.ar      1 MOL     0.0445
     11 N16        60.2558   42.7978    7.2916 N.pl3     1 MOL    -0.3432
     12 C3         61.3045   46.9041    9.2862 C.ar      1 MOL     0.0295
     13 C2         62.1850   47.7396    9.9780 C.ar      1 MOL     0.0108
     14 C1         63.4566   47.2830   10.3281 C.ar      1 MOL    -0.0171
     15 C11        65.0140   49.1476   13.0086 C.2       1 MOL     0.0459
     16 S9         66.1138   49.5951   11.8293 S.3       1 MOL    -0.1054
     17 H161       59.4131   43.2159    6.9238 H         1 MOL     0.1442
     18 H162       60.4314   41.8125    7.1560 H         1 MOL     0.1442
@<TRIPOS>BOND
     1    2    1 ar
     2    1    7 ar
     3    1   12 ar
     4    3    2 ar
     5    2    9 ar
     6   14    3 ar
     7    4    5 1 
     8    4    6 2 
     9    4   14 1 
    10    5   15 2 
    11    6   16 1 
    12    7    8 ar
    13    8   10 ar
    14    8   11 1 
    15    9   10 ar
    16   12   13 ar
    17   13   14 ar
    18   15   16 1 
    19   17   11 1 
    20   18   11 1 
@<TRIPOS>SUBSTRUCTURE
1 MOL         1
@<TRIPOS>MOLECULE
query molecule
   18    20     1     0     0
SMALL
NO_CHARGE

@<TRIPOS>ATOM
      1 C4         74.7886   46.5156    8.1985 C.ar      1 MOL     0.0725
      2 C5         75.4276   45.2798    8.3268 C.ar      1 MOL     0.0009
      3 C6         76.5618   45.1667    9.1313 C.ar      1 MOL     0.0187
      4 C7         78.2100   46.1830   10.6220 C.2       1 MOL    -0.0112
      5 C8         79.4493   46.5257   10.1674 C.2       1 MOL     0.0163
      6 C10        78.2022   45.7975   11.9111 C.2       1 MOL     0.0538
      7 N12        73.6846   46.6412    7.4445 N.ar      1 MOL    -0.2334
      8 C13        73.1589   45.5866    6.7855 C.ar      1 MOL     0.1153
      9 C15        74.9144   44.1698    7.6552 C.ar      1 MOL     0.0138
     10 C14        73.7641   44.3259    6.8722 C.ar      1 MOL     0.0445
     11 N16        72.0717   45.7554    6.0331 N.pl3     1 MOL    -0.3432
     12 C3         75.2894   47.6258    8.8770 C.ar      1 MOL     0.0295
     13 C2         76.4292   47.5140    9.6771 C.ar      1 MOL     0.0108
     14 C1         77.0832   46.2871    9.7992 C.ar      1 MOL    -0.0171
     15 C11        80.4899   46.4232   11.0091 C.2       1 MOL     0.0459
     16 S9         79.8213   45.8831   12.4450 S.3       1 MOL    -0.1054
     17 H161       71.7244   46.6857    5.8491 H         1 MOL     0.1442
     18 H162       71.5953   44.9529    5.6469 H         1 MOL     0.1442
@<TRIPOS>BOND
     1    2    1 ar
     2    1    7 ar
     3    1   12 ar
     4    3    2 ar
     5    2    9 ar
     6   14    3 ar
     7    4    5 1 
     8    4    6 2 
     9    4   14 1 
    10    5   15 2 
    11    6   16 1 
    12    7    8 ar
    13    8   10 ar
    14    8   11 1 
    15    9   10 ar
    16   12   13 ar
    17   13   14 ar
    18   15   16 1 
    19   17   11 1 
    20   18   11 1 
@<TRIPOS>SUBSTRUCTURE
1 MOL         1
@<TRIPOS>MOLECULE
query molecule
   18    20     1     0     0
SMALL
NO_CHARGE

@<TRIPOS>ATOM
      1 C4         68.9516   49.9686    8.3622 C.ar      1 MOL     0.0725
      2 C5         69.0945   48.9045    9.2562 C.ar      1 MOL     0.0009
      3 C6         69.8043   49.0877   10.4433 C.ar      1 MOL     0.0187
      4 C7         71.0965   50.5268   11.9368 C.2       1 MOL    -0.0112
      5 C8         70.6734   51.4397   12.8573 C.2       1 MOL     0.0163
      6 C10        72.1895   49.8448   12.3251 C.2       1 MOL     0.0538
      7 N12        68.2559   49.8182    7.2236 N.ar      1 MOL    -0.2334
      8 C13        67.6774   48.6413    6.9027 C.ar      1 MOL     0.1153
      9 C15        68.5140   47.6724    8.9537 C.ar      1 MOL     0.0138
     10 C14        67.7962   47.5386    7.7589 C.ar      1 MOL     0.0445
     11 N16        67.0096   48.5269    5.7549 N.pl3     1 MOL    -0.3432
     12 C3         69.5189   51.2057    8.6648 C.ar      1 MOL     0.0295
     13 C2         70.2355   51.3872    9.8502 C.ar      1 MOL     0.0108
     14 C1         70.3965   50.3259   10.7422 C.ar      1 MOL    -0.0171
     15 C11        71.3751   51.5744   13.9935 C.2       1 MOL     0.0459
     16 S9         72.6130   50.4561   13.8616 S.3       1 MOL    -0.1054
     17 H161       66.2806   47.8340    5.6616 H         1 MOL     0.1442
     18 H162       67.2325   49.1330    4.9783 H         1 MOL     0.1442
@<TRIPOS>BOND
     1    2    1 ar
     2    1    7 ar
     3    1   12 ar
     4    3    2 ar
     5    2    9 ar
     6   14    3 ar
     7    4    5 1 
     8    4    6 2 
     9    4   14 1 
    10    5   15 2 
    11    6   16 1 
    12    7    8 ar
    13    8   10 ar
    14    8   11 1 
    15    9   10 ar
    16   12   13 ar
    17   13   14 ar
    18   15   16 1 
    19   17   11 1 
    20   18   11 1 
@<TRIPOS>SUBSTRUCTURE
1 MOL         1
@<TRIPOS>MOLECULE
query molecule
   18    20     1     0     0
SMALL
NO_CHARGE

@<TRIPOS>ATOM
      1 C4         67.0940   40.5243   13.2756 C.ar      1 MOL     0.0725
      2 C5         66.6412   41.7312   12.7370 C.ar      1 MOL     0.0009
      3 C6         67.3408   42.3269   11.6872 C.ar      1 MOL     0.0187
      4 C7         69.2107   42.3168   10.1139 C.2       1 MOL    -0.0112
      5 C8         68.8854   42.0374    8.8194 C.2       1 MOL     0.0163
      6 C10        70.2089   43.2113   10.2322 C.2       1 MOL     0.0538
      7 N12        66.4242   39.9250   14.2733 N.ar      1 MOL    -0.2334
      8 C13        65.3000   40.4652   14.7900 C.ar      1 MOL     0.1153
      9 C15        65.4856   42.3203   13.2506 C.ar      1 MOL     0.0138
     10 C14        64.8059   41.6786   14.2932 C.ar      1 MOL     0.0445
     11 N16        64.6730   39.8487   15.7916 N.pl3     1 MOL    -0.3432
     12 C3         68.2413   39.9244   12.7583 C.ar      1 MOL     0.0295
     13 C2         68.9457   40.5245   11.7117 C.ar      1 MOL     0.0108
     14 C1         68.5097   41.7379   11.1773 C.ar      1 MOL    -0.0171
     15 C11        69.5811   42.6383    7.8414 C.2       1 MOL     0.0459
     16 S9         70.6791   43.6153    8.6417 S.3       1 MOL    -0.1054
     17 H161       63.6847   39.9984   15.9372 H         1 MOL     0.1442
     18 H162       65.1860   39.2317   16.4050 H         1 MOL     0.1442
@<TRIPOS>BOND
     1    2    1 ar
     2    1    7 ar
     3    1   12 ar
     4    3    2 ar
     5    2    9 ar
     6   14    3 ar
     7    4    5 1 
     8    4    6 2 
     9    4   14 1 
    10    5   15 2 
    11    6   16 1 
    12    7    8 ar
    13    8   10 ar
    14    8   11 1 
    15    9   10 ar
    16   12   13 ar
    17   13   14 ar
    18   15   16 1 
    19   17   11 1 
    20   18   11 1 
@<TRIPOS>SUBSTRUCTURE
1 MOL         1
@<TRIPOS>MOLECULE
query molecule
   18    20     1     0     0
SMALL
NO_CHARGE

@<TRIPOS>ATOM
      1 C4         60.2525   50.8321   14.0432 C.ar      1 MOL     0.0725
      2 C5         61.3449   50.2037   13.4401 C.ar      1 MOL     0.0009
      3 C6         62.0156   50.8353   12.3923 C.ar      1 MOL     0.0187
      4 C7         62.2667   52.7398   10.8819 C.2       1 MOL    -0.0112
      5 C8         62.4590   52.1322    9.6763 C.2       1 MOL     0.0163
      6 C10        62.7412   53.9980   10.9272 C.2       1 MOL     0.0538
      7 N12        59.6057   50.2498   15.0658 N.ar      1 MOL    -0.2334
      8 C13        59.9827   49.0438   15.5414 C.ar      1 MOL     0.1153
      9 C15        61.7584   48.9543   13.9030 C.ar      1 MOL     0.0138
     10 C14        61.0662   48.3652   14.9682 C.ar      1 MOL     0.0445
     11 N16        59.3043   48.4907   16.5466 N.pl3     1 MOL    -0.3432
     12 C3         59.8424   52.0864   13.5933 C.ar      1 MOL     0.0295
     13 C2         60.5096   52.7156   12.5395 C.ar      1 MOL     0.0108
     14 C1         61.5924   52.0890   11.9207 C.ar      1 MOL    -0.0171
     15 C11        63.0960   52.8139    8.7112 C.2       1 MOL     0.0459
     16 S9         63.4330   54.3029    9.3967 S.3       1 MOL    -0.1054
     17 H161       58.3870   48.8377   16.7882 H         1 MOL     0.1442
     18 H162       59.7074   47.7246   17.0668 H         1 MOL     0.1442
@<TRIPOS>BOND
     1    2    1 ar
     2    1    7 ar
     3    1   12 ar
     4    3    2 ar
     5    2    9 ar
     6   14    3 ar
     7    4    5 1 
     8    4    6 2 
     9    4   14 1 
    10    5   15 2 
    11    6   16 1 
    12    7    8 ar
    13    8   10 ar
    14    8   11 1 
    15    9   10 ar
    16   12   13 ar
    17   13   14 ar
    18   15   16 1 
    19   17   11 1 
    20   18   11 1 
@<TRIPOS>SUBSTRUCTURE
1 MOL         1
@<TRIPOS>MOLECULE
query molecule
   18    20     1     0     0
SMALL
NO_CHARGE

@<TRIPOS>ATOM
      1 C4         68.9943   50.1762    8.7321 C.ar      1 MOL     0.0725
      2 C5         69.4085   49.0339    9.4217 C.ar      1 MOL     0.0009
      3 C6         70.1746   49.1641   10.5805 C.ar      1 MOL     0.0187
      4 C7         71.3074   50.5760   12.2220 C.2       1 MOL    -0.0112
      5 C8         72.2012   49.6208   12.6074 C.2       1 MOL     0.0163
      6 C10        71.2790   51.6423   13.0423 C.2       1 MOL     0.0538
      7 N12        68.2402   50.0730    7.6258 N.ar      1 MOL    -0.2334
      8 C13        67.8616   48.8708    7.1420 C.ar      1 MOL     0.1153
      9 C15        69.0398   47.7751    8.9467 C.ar      1 MOL     0.0138
     10 C14        68.2560   47.6923    7.7892 C.ar      1 MOL     0.0445
     11 N16        67.1275   48.8092    6.0313 N.pl3     1 MOL    -0.3432
     12 C3         69.3492   51.4374    9.2088 C.ar      1 MOL     0.0295
     13 C2         70.1221   51.5675   10.3652 C.ar      1 MOL     0.0108
     14 C1         70.5535   50.4318   11.0523 C.ar      1 MOL    -0.0171
     15 C11        72.9100   49.8238   13.7290 C.2       1 MOL     0.0459
     16 S9         72.4065   51.3206   14.2829 S.3       1 MOL    -0.1054
     17 H161       67.0596   49.6145    5.4254 H         1 MOL     0.1442
     18 H162       66.6390   47.9573    5.7953 H         1 MOL     0.1442
@<TRIPOS>BOND
     1    2    1 ar
     2    1    7 ar
     3    1   12 ar
     4    3    2 ar
     5    2    9 ar
     6   14    3 ar
     7    4    5 1 
     8    4    6 2 
     9    4   14 1 
    10    5   15 2 
    11    6   16 1 
    12    7    8 ar
    13    8   10 ar
    14    8   11 1 
    15    9   10 ar
    16   12   13 ar
    17   13   14 ar
    18   15   16 1 
    19   17   11 1 
    20   18   11 1 
@<TRIPOS>SUBSTRUCTURE
1 MOL         1
@<TRIPOS>MOLECULE
query molecule
   18    20     1     0     0
SMALL
NO_CHARGE

@<TRIPOS>ATOM
      1 C4         61.5917   45.9830   14.0823 C.ar      1 MOL     0.0725
      2 C5         60.6494   45.8513   13.0592 C.ar      1 MOL     0.0009
      3 C6         61.0554   45.9436   11.7276 C.ar      1 MOL     0.0187
      4 C7         62.8218   46.2671   10.0704 C.2       1 MOL    -0.0112
      5 C8         62.5859   45.2487    9.1946 C.2       1 MOL     0.0163
      6 C10        63.4382   47.3227    9.5078 C.2       1 MOL     0.0538
      7 N12        61.2246   45.8780   15.3697 N.ar      1 MOL    -0.2334
      8 C13        59.9410   45.6469   15.7187 C.ar      1 MOL     0.1153
      9 C15        59.3130   45.6173   13.3841 C.ar      1 MOL     0.0138
     10 C14        58.9534   45.5150   14.7336 C.ar      1 MOL     0.0445
     11 N16        59.6132   45.5664   17.0081 N.pl3     1 MOL    -0.3432
     12 C3         62.9308   46.2045   13.7636 C.ar      1 MOL     0.0295
     13 C2         63.3361   46.3040   12.4304 C.ar      1 MOL     0.0108
     14 C1         62.3996   46.1890   11.4019 C.ar      1 MOL    -0.0171
     15 C11        62.9974   45.3892    7.9248 C.2       1 MOL     0.0459
     16 S9         63.6943   46.9097    7.8714 S.3       1 MOL    -0.1054
     17 H161       60.2488   45.9113   17.7133 H         1 MOL     0.1442
     18 H162       58.7293   45.1606   17.2801 H         1 MOL     0.1442
@<TRIPOS>BOND
     1    2    1 ar
     2    1    7 ar
     3    1   12 ar
     4    3    2 ar
     5    2    9 ar
     6   14    3 ar
     7    4    5 1 
     8    4    6 2 
     9    4   14 1 
    10    5   15 2 
    11    6   16 1 
    12    7    8 ar
    13    8   10 ar
    14    8   11 1 
    15    9   10 ar
    16   12   13 ar
    17   13   14 ar
    18   15   16 1 
    19   17   11 1 
    20   18   11 1 
@<TRIPOS>SUBSTRUCTURE
1 MOL         1
@<TRIPOS>MOLECULE
query molecule
   18    20     1     0     0
SMALL
NO_CHARGE

@<TRIPOS>ATOM
      1 C4         66.6855   49.9815   10.2550 C.ar      1 MOL     0.0725
      2 C5         66.8486   49.2674    9.0654 C.ar      1 MOL     0.0009
      3 C6         65.9845   48.2137    8.7661 C.ar      1 MOL     0.0187
      4 C7         64.0797   46.8033    9.3614 C.2       1 MOL    -0.0112
      5 C8         64.5129   45.5123    9.2884 C.2       1 MOL     0.0163
      6 C10        62.7543   46.9332    9.1695 C.2       1 MOL     0.0538
      7 N12        67.4944   51.0113   10.5525 N.ar      1 MOL    -0.2334
      8 C13        68.4889   51.3878    9.7206 C.ar      1 MOL     0.1153
      9 C15        67.8697   49.6261    8.1850 C.ar      1 MOL     0.0138
     10 C14        68.7028   50.7011    8.5182 C.ar      1 MOL     0.0445
     11 N16        69.2818   52.4042   10.0595 N.pl3     1 MOL    -0.3432
     12 C3         65.6592   49.6358   11.1330 C.ar      1 MOL     0.0295
     13 C2         64.7983   48.5762   10.8366 C.ar      1 MOL     0.0108
     14 C1         64.9629   47.8472    9.6578 C.ar      1 MOL    -0.0171
     15 C11        63.6154   44.5511    9.0195 C.2       1 MOL     0.0459
     16 S9         62.1573   45.3603    8.8805 S.3       1 MOL    -0.1054
     17 H161       68.9168   53.1672   10.6116 H         1 MOL     0.1442
     18 H162       70.2476   52.4115    9.7642 H         1 MOL     0.1442
@<TRIPOS>BOND
     1    2    1 ar
     2    1    7 ar
     3    1   12 ar
     4    3    2 ar
     5    2    9 ar
     6   14    3 ar
     7    4    5 1 
     8    4    6 2 
     9    4   14 1 
    10    5   15 2 
    11    6   16 1 
    12    7    8 ar
    13    8   10 ar
    14    8   11 1 
    15    9   10 ar
    16   12   13 ar
    17   13   14 ar
    18   15   16 1 
    19   17   11 1 
    20   18   11 1 
@<TRIPOS>SUBSTRUCTURE
1 MOL         1
@<TRIPOS>MOLECULE
query molecule
   18    20     1     0     0
SMALL
NO_CHARGE

@<TRIPOS>ATOM
      1 C4         66.3112   50.5568   13.2961 C.ar      1 MOL     0.0725
      2 C5         65.7931   50.8415   12.0302 C.ar      1 MOL     0.0009
      3 C6         66.4400   51.7653   11.2088 C.ar      1 MOL     0.0187
      4 C7         68.2639   53.3461   10.8270 C.2       1 MOL    -0.0112
      5 C8         67.7230   54.5662   10.5467 C.2       1 MOL     0.0163
      6 C10        69.4800   53.1634   10.2810 C.2       1 MOL     0.0538
      7 N12        65.7145   49.6566   14.0941 N.ar      1 MOL    -0.2334
      8 C13        64.5990   49.0024   13.7061 C.ar      1 MOL     0.1153
      9 C15        64.6385   50.1877   11.5992 C.ar      1 MOL     0.0138
     10 C14        64.0319   49.2556   12.4501 C.ar      1 MOL     0.0445
     11 N16        64.0262   48.1288   14.5338 N.pl3     1 MOL    -0.3432
     12 C3         67.4717   51.1977   13.7275 C.ar      1 MOL     0.0295
     13 C2         68.1155   52.1279   12.9077 C.ar      1 MOL     0.0108
     14 C1         67.5969   52.4301   11.6477 C.ar      1 MOL    -0.0171
     15 C11        68.4186   55.4105    9.7690 C.2       1 MOL     0.0459
     16 S9         69.8330   54.5901    9.4128 S.3       1 MOL    -0.1054
     17 H161       64.5935   47.5969   15.1783 H         1 MOL     0.1442
     18 H162       63.0248   47.9986   14.5166 H         1 MOL     0.1442
@<TRIPOS>BOND
     1    2    1 ar
     2    1    7 ar
     3    1   12 ar
     4    3    2 ar
     5    2    9 ar
     6   14    3 ar
     7    4    5 1 
     8    4    6 2 
     9    4   14 1 
    10    5   15 2 
    11    6   16 1 
    12    7    8 ar
    13    8   10 ar
    14    8   11 1 
    15    9   10 ar
    16   12   13 ar
    17   13   14 ar
    18   15   16 1 
    19   17   11 1 
    20   18   11 1 
@<TRIPOS>SUBSTRUCTURE
1 MOL         1
@<TRIPOS>MOLECULE
query molecule
   18    20     1     0     0
SMALL
NO_CHARGE

@<TRIPOS>ATOM
      1 C4         72.9029   48.6710    9.5274 C.ar      1 MOL     0.0725
      2 C5         72.6416   49.9129    8.9430 C.ar      1 MOL     0.0009
      3 C6         71.6140   50.7121    9.4449 C.ar      1 MOL     0.0187
      4 C7         69.8007   51.0732   11.0426 C.2       1 MOL    -0.0112
      5 C8         68.4954   50.6845   10.9720 C.2       1 MOL     0.0163
      6 C10        69.9757   52.2406   11.6885 C.2       1 MOL     0.0538
      7 N12        73.8998   47.8953    9.0717 N.ar      1 MOL    -0.2334
      8 C13        74.6767   48.2832    8.0380 C.ar      1 MOL     0.1153
      9 C15        73.4216   50.3428    7.8692 C.ar      1 MOL     0.0138
     10 C14        74.4533   49.5152    7.4092 C.ar      1 MOL     0.0445
     11 N16        75.6453   47.4773    7.6033 N.pl3     1 MOL    -0.3432
     12 C3         72.1348   48.2413   10.6087 C.ar      1 MOL     0.0295
     13 C2         71.1014   49.0387   11.1068 C.ar      1 MOL     0.0108
     14 C1         70.8230   50.2739   10.5198 C.ar      1 MOL    -0.0171
     15 C11        67.5603   51.4841   11.5085 C.2       1 MOL     0.0459
     16 S9         68.4189   52.7725   12.1438 S.3       1 MOL    -0.1054
     17 H161       76.1231   46.8670    8.2509 H         1 MOL     0.1442
     18 H162       75.9016   47.4769    6.6264 H         1 MOL     0.1442
@<TRIPOS>BOND
     1    2    1 ar
     2    1    7 ar
     3    1   12 ar
     4    3    2 ar
     5    2    9 ar
     6   14    3 ar
     7    4    5 1 
     8    4    6 2 
     9    4   14 1 
    10    5   15 2 
    11    6   16 1 
    12    7    8 ar
    13    8   10 ar
    14    8   11 1 
    15    9   10 ar
    16   12   13 ar
    17   13   14 ar
    18   15   16 1 
    19   17   11 1 
    20   18   11 1 
@<TRIPOS>SUBSTRUCTURE
1 MOL         1
@<TRIPOS>MOLECULE
query molecule
   18    20     1     0     0
SMALL
NO_CHARGE

@<TRIPOS>ATOM
      1 C4         62.0192   46.0270   11.6154 C.ar      1 MOL     0.0725
      2 C5         63.3892   45.8037   11.7739 C.ar      1 MOL     0.0009
      3 C6         64.0152   46.1595   12.9689 C.ar      1 MOL     0.0187
      4 C7         63.9007   47.1062   15.2188 C.2       1 MOL    -0.0112
      5 C8         64.5018   46.1638   15.9999 C.2       1 MOL     0.0163
      6 C10        64.0084   48.3543   15.7100 C.2       1 MOL     0.0538
      7 N12        61.3941   45.6740   10.4805 N.ar      1 MOL    -0.2334
      8 C13        62.0630   45.0987    9.4586 C.ar      1 MOL     0.1153
      9 C15        64.1125   45.2159   10.7358 C.ar      1 MOL     0.0138
     10 C14        63.4398   44.8594    9.5605 C.ar      1 MOL     0.0445
     11 N16        61.4104   44.7785    8.3414 N.pl3     1 MOL    -0.3432
     12 C3         61.2885   46.6027   12.6538 C.ar      1 MOL     0.0295
     13 C2         61.9168   46.9653   13.8478 C.ar      1 MOL     0.0108
     14 C1         63.2878   46.7602   14.0097 C.ar      1 MOL    -0.0171
     15 C11        65.0905   46.5588   17.1397 C.2       1 MOL     0.0459
     16 S9         64.8691   48.2171   17.1778 S.3       1 MOL    -0.1054
     17 H161       61.6033   45.2757    7.4836 H         1 MOL     0.1442
     18 H162       60.7229   44.0386    8.3525 H         1 MOL     0.1442
@<TRIPOS>BOND
     1    2    1 ar
     2    1    7 ar
     3    1   12 ar
     4    3    2 ar
     5    2    9 ar
     6   14    3 ar
     7    4    5 1 
     8    4    6 2 
     9    4   14 1 
    10    5   15 2 
    11    6   16 1 
    12    7    8 ar
    13    8   10 ar
    14    8   11 1 
    15    9   10 ar
    16   12   13 ar
    17   13   14 ar
    18   15   16 1 
    19   17   11 1 
    20   18   11 1 
@<TRIPOS>SUBSTRUCTURE
1 MOL         1
@<TRIPOS>MOLECULE
query molecule
   18    20     1     0     0
SMALL
NO_CHARGE

@<TRIPOS>ATOM
      1 C4         67.6860   43.7571   13.4832 C.ar      1 MOL     0.0725
      2 C5         67.7772   42.3956   13.7831 C.ar      1 MOL     0.0009
      3 C6         66.6550   41.5787   13.6422 C.ar      1 MOL     0.0187
      4 C7         64.2978   41.3012   13.0605 C.2       1 MOL    -0.0112
      5 C8         63.4162   41.1080   14.0828 C.2       1 MOL     0.0163
      6 C10        63.9379   40.6823   11.9212 C.2       1 MOL     0.0538
      7 N12        68.7593   44.5565   13.5937 N.ar      1 MOL    -0.2334
      8 C13        69.9546   44.0774   13.9991 C.ar      1 MOL     0.1153
      9 C15        68.9960   41.8679   14.2101 C.ar      1 MOL     0.0138
     10 C14        70.1004   42.7216   14.3209 C.ar      1 MOL     0.0445
     11 N16        70.9923   44.9062   14.1129 N.pl3     1 MOL    -0.3432
     12 C3         66.4739   44.2880   13.0441 C.ar      1 MOL     0.0295
     13 C2         65.3484   43.4712   12.9097 C.ar      1 MOL     0.0108
     14 C1         65.4259   42.1130   13.2215 C.ar      1 MOL    -0.0171
     15 C11        62.3417   40.3341   13.8627 C.2       1 MOL     0.0459
     16 S9         62.4793   39.8640   12.2625 S.3       1 MOL    -0.1054
     17 H161       71.3705   45.1197   15.0247 H         1 MOL     0.1442
     18 H162       71.4004   45.3208   13.2872 H         1 MOL     0.1442
@<TRIPOS>BOND
     1    2    1 ar
     2    1    7 ar
     3    1   12 ar
     4    3    2 ar
     5    2    9 ar
     6   14    3 ar
     7    4    5 1 
     8    4    6 2 
     9    4   14 1 
    10    5   15 2 
    11    6   16 1 
    12    7    8 ar
    13    8   10 ar
    14    8   11 1 
    15    9   10 ar
    16   12   13 ar
    17   13   14 ar
    18   15   16 1 
    19   17   11 1 
    20   18   11 1 
@<TRIPOS>SUBSTRUCTURE
1 MOL         1
@<TRIPOS>MOLECULE
query molecule
   18    20     1     0     0
SMALL
NO_CHARGE

@<TRIPOS>ATOM
      1 C4         76.9143   44.3028   10.0844 C.ar      1 MOL     0.0725
      2 C5         78.1113   44.9894    9.8661 C.ar      1 MOL     0.0009
      3 C6         78.8769   44.7045    8.7351 C.ar      1 MOL     0.0187
      4 C7         79.2196   43.4355    6.6751 C.2       1 MOL    -0.0112
      5 C8         78.7081   42.6714    5.6681 C.2       1 MOL     0.0163
      6 C10        80.4566   43.8985    6.4181 C.2       1 MOL     0.0538
      7 N12        76.1533   44.5759   11.1565 N.ar      1 MOL    -0.2334
      8 C13        76.5170   45.5139   12.0569 C.ar      1 MOL     0.1153
      9 C15        78.5202   45.9615   10.7794 C.ar      1 MOL     0.0138
     10 C14        77.7119   46.2266   11.8917 C.ar      1 MOL     0.0445
     11 N16        75.7432   45.7439   13.1175 N.pl3     1 MOL    -0.3432
     12 C3         76.4941   43.3390    9.1688 C.ar      1 MOL     0.0295
     13 C2         77.2643   43.0488    8.0399 C.ar      1 MOL     0.0108
     14 C1         78.4691   43.7186    7.8214 C.ar      1 MOL    -0.0171
     15 C11        79.4682   42.4500    4.5841 C.2       1 MOL     0.0459
     16 S9         80.8865   43.2861    4.8838 S.3       1 MOL    -0.1054
     17 H161       76.0672   45.4979   14.0420 H         1 MOL     0.1442
     18 H162       74.8328   46.1642   12.9968 H         1 MOL     0.1442
@<TRIPOS>BOND
     1    2    1 ar
     2    1    7 ar
     3    1   12 ar
     4    3    2 ar
     5    2    9 ar
     6   14    3 ar
     7    4    5 1 
     8    4    6 2 
     9    4   14 1 
    10    5   15 2 
    11    6   16 1 
    12    7    8 ar
    13    8   10 ar
    14    8   11 1 
    15    9   10 ar
    16   12   13 ar
    17   13   14 ar
    18   15   16 1 
    19   17   11 1 
    20   18   11 1 
@<TRIPOS>SUBSTRUCTURE
1 MOL         1
@<TRIPOS>MOLECULE
query molecule
   18    20     1     0     0
SMALL
NO_CHARGE

@<TRIPOS>ATOM
      1 C4         70.0543   51.0577    8.9364 C.ar      1 MOL     0.0725
      2 C5         71.0628   50.4274    9.6697 C.ar      1 MOL     0.0009
      3 C6         71.9396   49.5508    9.0300 C.ar      1 MOL     0.0187
      4 C7         72.6915   48.4129    7.0024 C.2       1 MOL    -0.0112
      5 C8         73.7557   48.8935    6.2980 C.2       1 MOL     0.0163
      6 C10        72.6295   47.0689    7.0249 C.2       1 MOL     0.0538
      7 N12        69.2124   51.9195    9.5293 N.ar      1 MOL    -0.2334
      8 C13        69.3073   52.2025   10.8460 C.ar      1 MOL     0.1153
      9 C15        71.1863   50.6927   11.0338 C.ar      1 MOL     0.0138
     10 C14        70.2947   51.5924   11.6308 C.ar      1 MOL     0.0445
     11 N16        68.4417   53.0503   11.4016 N.pl3     1 MOL    -0.3432
     12 C3         69.9336   50.8061    7.5704 C.ar      1 MOL     0.0295
     13 C2         70.8073   49.9230    6.9313 C.ar      1 MOL     0.0108
     14 C1         71.8082   49.2770    7.6585 C.ar      1 MOL    -0.0171
     15 C11        74.5798   48.0150    5.7058 C.2       1 MOL     0.0459
     16 S9         73.9542   46.5143    6.1023 S.3       1 MOL    -0.1054
     17 H161       68.2479   52.9978   12.3914 H         1 MOL     0.1442
     18 H162       67.9797   53.7453   10.8328 H         1 MOL     0.1442
@<TRIPOS>BOND
     1    2    1 ar
     2    1    7 ar
     3    1   12 ar
     4    3    2 ar
     5    2    9 ar
     6   14    3 ar
     7    4    5 1 
     8    4    6 2 
     9    4   14 1 
    10    5   15 2 
    11    6   16 1 
    12    7    8 ar
    13    8   10 ar
    14    8   11 1 
    15    9   10 ar
    16   12   13 ar
    17   13   14 ar
    18   15   16 1 
    19   17   11 1 
    20   18   11 1 
@<TRIPOS>SUBSTRUCTURE
1 MOL         1
@<TRIPOS>MOLECULE
query molecule
   18    20     1     0     0
SMALL
NO_CHARGE

@<TRIPOS>ATOM
      1 C4         72.4501   44.4381    9.1522 C.ar      1 MOL     0.0725
      2 C5         73.2339   45.5225    8.7502 C.ar      1 MOL     0.0009
      3 C6         72.6323   46.7553    8.4956 C.ar      1 MOL     0.0187
      4 C7         70.6292   48.1503    8.3819 C.2       1 MOL    -0.0112
      5 C8         70.6761   49.1498    9.3085 C.2       1 MOL     0.0163
      6 C10        69.9924   48.5016    7.2498 C.2       1 MOL     0.0538
      7 N12        73.0122   43.2485    9.4208 N.ar      1 MOL    -0.2334
      8 C13        74.3442   43.0585    9.3092 C.ar      1 MOL     0.1153
      9 C15        74.6133   45.3600    8.6194 C.ar      1 MOL     0.0138
     10 C14        75.1764   44.1094    8.9017 C.ar      1 MOL     0.0445
     11 N16        74.8623   41.8580    9.5680 N.pl3     1 MOL    -0.3432
     12 C3         71.0726   44.5975    9.2968 C.ar      1 MOL     0.0295
     13 C2         70.4694   45.8301    9.0351 C.ar      1 MOL     0.0108
     14 C1         71.2421   46.9150    8.6183 C.ar      1 MOL    -0.0171
     15 C11        70.0863   50.3198    9.0172 C.2       1 MOL     0.0459
     16 S9         69.4714   50.1115    7.4748 S.3       1 MOL    -0.1054
     17 H161       75.7424   41.5876    9.1528 H         1 MOL     0.1442
     18 H162       74.3748   41.2187   10.1793 H         1 MOL     0.1442
@<TRIPOS>BOND
     1    2    1 ar
     2    1    7 ar
     3    1   12 ar
     4    3    2 ar
     5    2    9 ar
     6   14    3 ar
     7    4    5 1 
     8    4    6 2 
     9    4   14 1 
    10    5   15 2 
    11    6   16 1 
    12    7    8 ar
    13    8   10 ar
    14    8   11 1 
    15    9   10 ar
    16   12   13 ar
    17   13   14 ar
    18   15   16 1 
    19   17   11 1 
    20   18   11 1 
@<TRIPOS>SUBSTRUCTURE
1 MOL         1
@<TRIPOS>MOLECULE
query molecule
   18    20     1     0     0
SMALL
NO_CHARGE

@<TRIPOS>ATOM
      1 C4         73.0516   47.0874    2.8837 C.ar      1 MOL     0.0725
      2 C5         73.8791   46.1725    3.5395 C.ar      1 MOL     0.0009
      3 C6         74.2832   46.4208    4.8516 C.ar      1 MOL     0.0187
      4 C7         74.2695   47.8447    6.8376 C.2       1 MOL    -0.0112
      5 C8         74.2986   46.8468    7.7665 C.2       1 MOL     0.0163
      6 C10        74.6829   49.0321    7.3168 C.2       1 MOL     0.0538
      7 N12        72.6358   46.8574    1.6277 N.ar      1 MOL    -0.2334
      8 C13        73.0031   45.7443    0.9577 C.ar      1 MOL     0.1153
      9 C15        74.2822   45.0140    2.8750 C.ar      1 MOL     0.0138
     10 C14        73.8388   44.7975    1.5645 C.ar      1 MOL     0.0445
     11 N16        72.5837   45.5605   -0.2940 N.pl3     1 MOL    -0.3432
     12 C3         72.6353   48.2409    3.5469 C.ar      1 MOL     0.0295
     13 C2         73.0456   48.4929    4.8584 C.ar      1 MOL     0.0108
     14 C1         73.8846   47.5923    5.5163 C.ar      1 MOL    -0.0171
     15 C11        74.6952   47.1455    9.0136 C.2       1 MOL     0.0459
     16 S9         75.0620   48.7775    8.9615 S.3       1 MOL    -0.1054
     17 H161       73.1119   44.9719   -0.9223 H         1 MOL     0.1442
     18 H162       71.7377   46.0097   -0.6143 H         1 MOL     0.1442
@<TRIPOS>BOND
     1    2    1 ar
     2    1    7 ar
     3    1   12 ar
     4    3    2 ar
     5    2    9 ar
     6   14    3 ar
     7    4    5 1 
     8    4    6 2 
     9    4   14 1 
    10    5   15 2 
    11    6   16 1 
    12    7    8 ar
    13    8   10 ar
    14    8   11 1 
    15    9   10 ar
    16   12   13 ar
    17   13   14 ar
    18   15   16 1 
    19   17   11 1 
    20   18   11 1 
@<TRIPOS>SUBSTRUCTURE
1 MOL         1
@<TRIPOS>MOLECULE
query molecule
   18    20     1     0     0
SMALL
NO_CHARGE

@<TRIPOS>ATOM
      1 C4         71.6611   50.2677   12.1402 C.ar      1 MOL     0.0725
      2 C5         71.1559   51.2172   13.0320 C.ar      1 MOL     0.0009
      3 C6         70.3143   52.2271   12.5650 C.ar      1 MOL     0.0187
      4 C7         69.1281   53.3123   10.7247 C.2       1 MOL    -0.0112
      5 C8         68.1195   53.8062   11.4984 C.2       1 MOL     0.0163
      6 C10        69.2204   53.9102    9.5228 C.2       1 MOL     0.0538
      7 N12        72.4570   49.2765   12.5728 N.ar      1 MOL    -0.2334
      8 C13        72.7979   49.1652   13.8744 C.ar      1 MOL     0.1153
      9 C15        71.4922   51.1353   14.3835 C.ar      1 MOL     0.0138
     10 C14        72.3265   50.0949   14.8106 C.ar      1 MOL     0.0445
     11 N16        73.6043   48.1772   14.2620 N.pl3     1 MOL    -0.3432
     12 C3         71.3187   50.3369   10.7905 C.ar      1 MOL     0.0295
     13 C2         70.4815   51.3524   10.3218 C.ar      1 MOL     0.0108
     14 C1         69.9842   52.3142   11.2024 C.ar      1 MOL    -0.0171
     15 C11        67.3426   54.7770   10.9929 C.2       1 MOL     0.0459
     16 S9         67.9661   55.0667    9.4671 S.3       1 MOL    -0.1054
     17 H161       73.2947   47.2180   14.1978 H         1 MOL     0.1442
     18 H162       74.5250   48.3878   14.6198 H         1 MOL     0.1442
@<TRIPOS>BOND
     1    2    1 ar
     2    1    7 ar
     3    1   12 ar
     4    3    2 ar
     5    2    9 ar
     6   14    3 ar
     7    4    5 1 
     8    4    6 2 
     9    4   14 1 
    10    5   15 2 
    11    6   16 1 
    12    7    8 ar
    13    8   10 ar
    14    8   11 1 
    15    9   10 ar
    16   12   13 ar
    17   13   14 ar
    18   15   16 1 
    19   17   11 1 
    20   18   11 1 
@<TRIPOS>SUBSTRUCTURE
1 MOL         1
@<TRIPOS>MOLECULE
query molecule
   18    20     1     0     0
SMALL
NO_CHARGE

@<TRIPOS>ATOM
      1 C4         75.8931   46.3330    8.4790 C.ar      1 MOL     0.0725
      2 C5         75.0956   46.6333    9.5861 C.ar      1 MOL     0.0009
      3 C6         74.0212   47.5126    9.4476 C.ar      1 MOL     0.0187
      4 C7         72.6587   48.9879    8.0554 C.2       1 MOL    -0.0112
      5 C8         72.4771   50.0457    8.8968 C.2       1 MOL     0.0163
      6 C10        71.7367   48.9192    7.0778 C.2       1 MOL     0.0538
      7 N12        76.9199   45.4744    8.5868 N.ar      1 MOL    -0.2334
      8 C13        77.2182   44.8783    9.7609 C.ar      1 MOL     0.1153
      9 C15        75.3788   46.0393   10.8162 C.ar      1 MOL     0.0138
     10 C14        76.4566   45.1499   10.9051 C.ar      1 MOL     0.0445
     11 N16        78.2562   44.0451    9.8316 N.pl3     1 MOL    -0.3432
     12 C3         75.6076   46.9139    7.2441 C.ar      1 MOL     0.0295
     13 C2         74.5360   47.7997    7.1072 C.ar      1 MOL     0.0108
     14 C1         73.7430   48.1176    8.2108 C.ar      1 MOL    -0.0171
     15 C11        71.4292   50.8576    8.6861 C.2       1 MOL     0.0459
     16 S9         70.6723   50.2293    7.3323 S.3       1 MOL    -0.1054
     17 H161       78.2391   43.1727    9.3229 H         1 MOL     0.1442
     18 H162       79.0599   44.2861   10.3938 H         1 MOL     0.1442
@<TRIPOS>BOND
     1    2    1 ar
     2    1    7 ar
     3    1   12 ar
     4    3    2 ar
     5    2    9 ar
     6   14    3 ar
     7    4    5 1 
     8    4    6 2 
     9    4   14 1 
    10    5   15 2 
    11    6   16 1 
    12    7    8 ar
    13    8   10 ar
    14    8   11 1 
    15    9   10 ar
    16   12   13 ar
    17   13   14 ar
    18   15   16 1 
    19   17   11 1 
    20   18   11 1 
@<TRIPOS>SUBSTRUCTURE
1 MOL         1
@<TRIPOS>MOLECULE
query molecule
   18    20     1     0     0
SMALL
NO_CHARGE

@<TRIPOS>ATOM
      1 C4         76.0158   43.9088    7.1793 C.ar      1 MOL     0.0725
      2 C5         77.4054   43.7893    7.0973 C.ar      1 MOL     0.0009
      3 C6         78.2129   44.4422    8.0291 C.ar      1 MOL     0.0187
      4 C7         78.4442   45.8835    9.9889 C.2       1 MOL    -0.0112
      5 C8         79.7120   45.4561   10.2530 C.2       1 MOL     0.0163
      6 C10        78.0939   46.9787   10.6876 C.2       1 MOL     0.0538
      7 N12        75.2205   43.2728    6.3041 N.ar      1 MOL    -0.2334
      8 C13        75.7316   42.5041    5.3188 C.ar      1 MOL     0.1153
      9 C15        77.9677   43.0071    6.0882 C.ar      1 MOL     0.0138
     10 C14        77.1184   42.3562    5.1851 C.ar      1 MOL     0.0445
     11 N16        74.9096   41.9029    4.4589 N.pl3     1 MOL    -0.3432
     12 C3         75.4475   44.6790    8.1930 C.ar      1 MOL     0.0295
     13 C2         76.2564   45.3384    9.1218 C.ar      1 MOL     0.0108
     14 C1         77.6459   45.2373    9.0388 C.ar      1 MOL    -0.0171
     15 C11        80.4371   46.1280   11.1609 C.2       1 MOL     0.0459
     16 S9         79.4361   47.3699   11.6671 S.3       1 MOL    -0.1054
     17 H161       74.2824   41.1798    4.7812 H         1 MOL     0.1442
     18 H162       74.9139   42.1703    3.4850 H         1 MOL     0.1442
@<TRIPOS>BOND
     1    2    1 ar
     2    1    7 ar
     3    1   12 ar
     4    3    2 ar
     5    2    9 ar
     6   14    3 ar
     7    4    5 1 
     8    4    6 2 
     9    4   14 1 
    10    5   15 2 
    11    6   16 1 
    12    7    8 ar
    13    8   10 ar
    14    8   11 1 
    15    9   10 ar
    16   12   13 ar
    17   13   14 ar
    18   15   16 1 
    19   17   11 1 
    20   18   11 1 
@<TRIPOS>SUBSTRUCTURE
1 MOL         1
@<TRIPOS>MOLECULE
query molecule
   18    20     1     0     0
SMALL
NO_CHARGE

@<TRIPOS>ATOM
      1 C4         77.1445   44.1373   10.0097 C.ar      1 MOL     0.0725
      2 C5         78.2440   44.9366    9.6869 C.ar      1 MOL     0.0009
      3 C6         78.9418   44.7081    8.5005 C.ar      1 MOL     0.0187
      4 C7         79.2463   43.4400    6.4340 C.2       1 MOL    -0.0112
      5 C8         80.1332   42.4114    6.3112 C.2       1 MOL     0.0163
      6 C10        79.0824   44.1418    5.2977 C.2       1 MOL     0.0538
      7 N12        76.4478   44.3533   11.1372 N.ar      1 MOL    -0.2334
      8 C13        76.7847   45.3406   11.9942 C.ar      1 MOL     0.1153
      9 C15        78.6233   45.9626   10.5526 C.ar      1 MOL     0.0138
     10 C14        77.8837   46.1667   11.7240 C.ar      1 MOL     0.0445
     11 N16        76.0788   45.5122   13.1117 N.pl3     1 MOL    -0.3432
     12 C3         76.7530   43.1183    9.1425 C.ar      1 MOL     0.0295
     13 C2         77.4560   42.8851    7.9580 C.ar      1 MOL     0.0108
     14 C1         78.5648   43.6685    7.6343 C.ar      1 MOL    -0.0171
     15 C11        80.7421   42.2299    5.1288 C.2       1 MOL     0.0459
     16 S9         80.1173   43.4289    4.1425 S.3       1 MOL    -0.1054
     17 H161       76.4991   45.3183   14.0094 H         1 MOL     0.1442
     18 H162       75.1236   45.8363   13.0609 H         1 MOL     0.1442
@<TRIPOS>BOND
     1    2    1 ar
     2    1    7 ar
     3    1   12 ar
     4    3    2 ar
     5    2    9 ar
     6   14    3 ar
     7    4    5 1 
     8    4    6 2 
     9    4   14 1 
    10    5   15 2 
    11    6   16 1 
    12    7    8 ar
    13    8   10 ar
    14    8   11 1 
    15    9   10 ar
    16   12   13 ar
    17   13   14 ar
    18   15   16 1 
    19   17   11 1 
    20   18   11 1 
@<TRIPOS>SUBSTRUCTURE
1 MOL         1
@<TRIPOS>MOLECULE
query molecule
   18    20     1     0     0
SMALL
NO_CHARGE

@<TRIPOS>ATOM
      1 C4         67.9227   52.9681   11.8754 C.ar      1 MOL     0.0725
      2 C5         69.0787   53.1274   11.1073 C.ar      1 MOL     0.0009
      3 C6         70.1788   52.2991   11.3313 C.ar      1 MOL     0.0187
      4 C7         71.2368   50.4704   12.5593 C.2       1 MOL    -0.0112
      5 C8         72.0329   50.6191   13.6565 C.2       1 MOL     0.0163
      6 C10        71.5867   49.4281   11.7835 C.2       1 MOL     0.0538
      7 N12        66.8463   53.7422   11.6625 N.ar      1 MOL    -0.2334
      8 C13        66.8443   54.6974   10.7083 C.ar      1 MOL     0.1153
      9 C15        69.1132   54.1086   10.1161 C.ar      1 MOL     0.0138
     10 C14        67.9800   54.9060    9.9146 C.ar      1 MOL     0.0445
     11 N16        65.7624   55.4572   10.5391 N.pl3     1 MOL    -0.3432
     12 C3         67.8776   51.9811   12.8591 C.ar      1 MOL     0.0295
     13 C2         68.9817   51.1563   13.0881 C.ar      1 MOL     0.0108
     14 C1         70.1463   51.3180   12.3362 C.ar      1 MOL    -0.0171
     15 C11        73.0527   49.7633   13.8272 C.2       1 MOL     0.0459
     16 S9         72.9520   48.7193   12.5232 S.3       1 MOL    -0.1054
     17 H161       65.7946   56.4402   10.7690 H         1 MOL     0.1442
     18 H162       64.9103   55.0501   10.1810 H         1 MOL     0.1442
@<TRIPOS>BOND
     1    2    1 ar
     2    1    7 ar
     3    1   12 ar
     4    3    2 ar
     5    2    9 ar
     6   14    3 ar
     7    4    5 1 
     8    4    6 2 
     9    4   14 1 
    10    5   15 2 
    11    6   16 1 
    12    7    8 ar
    13    8   10 ar
    14    8   11 1 
    15    9   10 ar
    16   12   13 ar
    17   13   14 ar
    18   15   16 1 
    19   17   11 1 
    20   18   11 1 
@<TRIPOS>SUBSTRUCTURE
1 MOL         1
@<TRIPOS>MOLECULE
query molecule
   18    20     1     0     0
SMALL
NO_CHARGE

@<TRIPOS>ATOM
      1 C4         64.5801   45.4202   17.9205 C.ar      1 MOL     0.0725
      2 C5         64.5018   45.2428   19.3041 C.ar      1 MOL     0.0009
      3 C6         64.2103   43.9818   19.8253 C.ar      1 MOL     0.0187
      4 C7         63.6964   41.6172   19.4846 C.2       1 MOL    -0.0112
      5 C8         62.4923   41.3342   20.0588 C.2       1 MOL     0.0163
      6 C10        64.5243   40.5579   19.4312 C.2       1 MOL     0.0538
      7 N12        64.8785   46.6213   17.3995 N.ar      1 MOL    -0.2334
      8 C13        65.1079   47.6929   18.1880 C.ar      1 MOL     0.1153
      9 C15        64.7279   46.3300   20.1485 C.ar      1 MOL     0.0138
     10 C14        65.0341   47.5735   19.5821 C.ar      1 MOL     0.0445
     11 N16        65.3842   48.8725   17.6323 N.pl3     1 MOL    -0.3432
     12 C3         64.3674   44.3347   17.0719 C.ar      1 MOL     0.0295
     13 C2         64.0686   43.0736   17.5936 C.ar      1 MOL     0.0108
     14 C1         63.9732   42.8900   18.9739 C.ar      1 MOL    -0.0171
     15 C11        62.2775   40.0896   20.5134 C.2       1 MOL     0.0459
     16 S9         63.6867   39.2601   20.1579 S.3       1 MOL    -0.1054
     17 H161       64.7226   49.6323   17.7048 H         1 MOL     0.1442
     18 H162       66.2551   49.0067   17.1388 H         1 MOL     0.1442
@<TRIPOS>BOND
     1    2    1 ar
     2    1    7 ar
     3    1   12 ar
     4    3    2 ar
     5    2    9 ar
     6   14    3 ar
     7    4    5 1 
     8    4    6 2 
     9    4   14 1 
    10    5   15 2 
    11    6   16 1 
    12    7    8 ar
    13    8   10 ar
    14    8   11 1 
    15    9   10 ar
    16   12   13 ar
    17   13   14 ar
    18   15   16 1 
    19   17   11 1 
    20   18   11 1 
@<TRIPOS>SUBSTRUCTURE
1 MOL         1
@<TRIPOS>MOLECULE
query molecule
   18    20     1     0     0
SMALL
NO_CHARGE

@<TRIPOS>ATOM
      1 C4         64.2807   45.3297   16.2524 C.ar      1 MOL     0.0725
      2 C5         64.2786   44.9794   17.6049 C.ar      1 MOL     0.0009
      3 C6         63.9835   43.6685   17.9803 C.ar      1 MOL     0.0187
      4 C7         63.3856   41.3771   17.3772 C.2       1 MOL    -0.0112
      5 C8         64.3354   40.4029   17.2848 C.2       1 MOL     0.0163
      6 C10        62.2179   40.9379   17.8811 C.2       1 MOL     0.0538
      7 N12        64.5810   46.5812   15.8691 N.ar      1 MOL    -0.2334
      8 C13        64.8856   47.5390   16.7705 C.ar      1 MOL     0.1153
      9 C15        64.5836   45.9457   18.5637 C.ar      1 MOL     0.0138
     10 C14        64.8903   47.2448   18.1404 C.ar      1 MOL     0.0445
     11 N16        65.1613   48.7740   16.3516 N.pl3     1 MOL    -0.3432
     12 C3         63.9888   44.3655   15.2887 C.ar      1 MOL     0.0295
     13 C2         63.6865   43.0545   15.6651 C.ar      1 MOL     0.0108
     14 C1         63.6670   42.6987   17.0146 C.ar      1 MOL    -0.0171
     15 C11        64.0125   39.1570   17.6658 C.2       1 MOL     0.0459
     16 S9         62.4244   39.2702   18.1813 S.3       1 MOL    -0.1054
     17 H161       66.1124   49.1134   16.3711 H         1 MOL     0.1442
     18 H162       64.4192   49.3705   16.0148 H         1 MOL     0.1442
@<TRIPOS>BOND
     1    2    1 ar
     2    1    7 ar
     3    1   12 ar
     4    3    2 ar
     5    2    9 ar
     6   14    3 ar
     7    4    5 1 
     8    4    6 2 
     9    4   14 1 
    10    5   15 2 
    11    6   16 1 
    12    7    8 ar
    13    8   10 ar
    14    8   11 1 
    15    9   10 ar
    16   12   13 ar
    17   13   14 ar
    18   15   16 1 
    19   17   11 1 
    20   18   11 1 
@<TRIPOS>SUBSTRUCTURE
1 MOL         1
@<TRIPOS>MOLECULE
query molecule
   18    20     1     0     0
SMALL
NO_CHARGE

@<TRIPOS>ATOM
      1 C4         70.0860   40.4587   15.4129 C.ar      1 MOL     0.0725
      2 C5         69.8633   39.6023   16.4941 C.ar      1 MOL     0.0009
      3 C6         70.7306   39.6263   17.5867 C.ar      1 MOL     0.0187
      4 C7         72.7072   40.5330   18.7013 C.2       1 MOL    -0.0112
      5 C8         72.3239   41.1003   19.8807 C.2       1 MOL     0.0163
      6 C10        73.9448   40.0065   18.7398 C.2       1 MOL     0.0538
      7 N12        69.2520   40.4648   14.3605 N.ar      1 MOL    -0.2334
      8 C13        68.1790   39.6471   14.3084 C.ar      1 MOL     0.1153
      9 C15        68.7667   38.7402   16.4711 C.ar      1 MOL     0.0138
     10 C14        67.9130   38.7620   15.3614 C.ar      1 MOL     0.0445
     11 N16        67.3844   39.6704   13.2385 N.pl3     1 MOL    -0.3432
     12 C3         71.1730   41.3314   15.4356 C.ar      1 MOL     0.0295
     13 C2         72.0454   41.3504   16.5266 C.ar      1 MOL     0.0108
     14 C1         71.8398   40.4879   17.6045 C.ar      1 MOL    -0.0171
     15 C11        73.1924   41.0965   20.9041 C.2       1 MOL     0.0459
     16 S9         74.5429   40.3066   20.3101 S.3       1 MOL    -0.1054
     17 H161       66.4694   40.0941   13.2981 H         1 MOL     0.1442
     18 H162       67.6971   39.2646   12.3682 H         1 MOL     0.1442
@<TRIPOS>BOND
     1    2    1 ar
     2    1    7 ar
     3    1   12 ar
     4    3    2 ar
     5    2    9 ar
     6   14    3 ar
     7    4    5 1 
     8    4    6 2 
     9    4   14 1 
    10    5   15 2 
    11    6   16 1 
    12    7    8 ar
    13    8   10 ar
    14    8   11 1 
    15    9   10 ar
    16   12   13 ar
    17   13   14 ar
    18   15   16 1 
    19   17   11 1 
    20   18   11 1 
@<TRIPOS>SUBSTRUCTURE
1 MOL         1
@<TRIPOS>MOLECULE
query molecule
   18    20     1     0     0
SMALL
NO_CHARGE

@<TRIPOS>ATOM
      1 C4         78.6070   46.2605    9.3180 C.ar      1 MOL     0.0725
      2 C5         79.9813   46.2740    9.5691 C.ar      1 MOL     0.0009
      3 C6         80.4661   46.8616   10.7379 C.ar      1 MOL     0.0187
      4 C7         80.0619   48.0378   12.8414 C.2       1 MOL    -0.0112
      5 C8         80.3900   47.2695   13.9193 C.2       1 MOL     0.0163
      6 C10        80.2844   49.3507   13.0343 C.2       1 MOL     0.0538
      7 N12        78.1187   45.6829    8.2085 N.ar      1 MOL    -0.2334
      8 C13        78.9326   45.1024    7.3011 C.ar      1 MOL     0.1153
      9 C15        80.8518   45.6878    8.6499 C.ar      1 MOL     0.0138
     10 C14        80.3197   45.0946    7.4985 C.ar      1 MOL     0.0445
     11 N16        78.4110   44.5547    6.2036 N.pl3     1 MOL    -0.3432
     12 C3         77.7311   46.8337   10.2389 C.ar      1 MOL     0.0295
     13 C2         78.2171   47.4283   11.4059 C.ar      1 MOL     0.0108
     14 C1         79.5895   47.4601   11.6580 C.ar      1 MOL    -0.0171
     15 C11        80.8565   47.8789   15.0206 C.2       1 MOL     0.0459
     16 S9         80.8870   49.5045   14.6240 S.3       1 MOL    -0.1054
     17 H161       78.3688   43.5497    6.1118 H         1 MOL     0.1442
     18 H162       78.0579   45.1445    5.4637 H         1 MOL     0.1442
@<TRIPOS>BOND
     1    2    1 ar
     2    1    7 ar
     3    1   12 ar
     4    3    2 ar
     5    2    9 ar
     6   14    3 ar
     7    4    5 1 
     8    4    6 2 
     9    4   14 1 
    10    5   15 2 
    11    6   16 1 
    12    7    8 ar
    13    8   10 ar
    14    8   11 1 
    15    9   10 ar
    16   12   13 ar
    17   13   14 ar
    18   15   16 1 
    19   17   11 1 
    20   18   11 1 
@<TRIPOS>SUBSTRUCTURE
1 MOL         1
@<TRIPOS>MOLECULE
query molecule
   18    20     1     0     0
SMALL
NO_CHARGE

@<TRIPOS>ATOM
      1 C4         69.9451   40.4992   15.0049 C.ar      1 MOL     0.0725
      2 C5         69.7507   39.5661   16.0264 C.ar      1 MOL     0.0009
      3 C6         70.6729   39.4791   17.0697 C.ar      1 MOL     0.0187
      4 C7         72.7315   40.2392   18.1446 C.2       1 MOL    -0.0112
      5 C8         72.4001   40.6485   19.4026 C.2       1 MOL     0.0163
      6 C10        73.9795   39.7442   18.0560 C.2       1 MOL     0.0538
      7 N12        69.0592   40.6121   14.0021 N.ar      1 MOL    -0.2334
      8 C13        67.9594   39.8312   13.9437 C.ar      1 MOL     0.1153
      9 C15        68.6275   38.7391   15.9947 C.ar      1 MOL     0.0138
     10 C14        67.7194   38.8728   14.9372 C.ar      1 MOL     0.0445
     11 N16        67.1125   39.9615   12.9228 N.pl3     1 MOL    -0.3432
     12 C3         71.0591   41.3369   15.0375 C.ar      1 MOL     0.0295
     13 C2         71.9861   41.2450   16.0787 C.ar      1 MOL     0.0108
     14 C1         71.8084   40.3055   17.0954 C.ar      1 MOL    -0.0171
     15 C11        73.3215   40.5427   20.3729 C.2       1 MOL     0.0459
     16 S9         74.6539   39.8663   19.6194 S.3       1 MOL    -0.1054
     17 H161       67.4669   40.0876   11.9854 H         1 MOL     0.1442
     18 H162       66.1162   39.9341   13.0864 H         1 MOL     0.1442
@<TRIPOS>BOND
     1    2    1 ar
     2    1    7 ar
     3    1   12 ar
     4    3    2 ar
     5    2    9 ar
     6   14    3 ar
     7    4    5 1 
     8    4    6 2 
     9    4   14 1 
    10    5   15 2 
    11    6   16 1 
    12    7    8 ar
    13    8   10 ar
    14    8   11 1 
    15    9   10 ar
    16   12   13 ar
    17   13   14 ar
    18   15   16 1 
    19   17   11 1 
    20   18   11 1 
@<TRIPOS>SUBSTRUCTURE
1 MOL         1
@<TRIPOS>MOLECULE
query molecule
   18    20     1     0     0
SMALL
NO_CHARGE

@<TRIPOS>ATOM
      1 C4         65.2171   47.6323   18.5602 C.ar      1 MOL     0.0725
      2 C5         65.1007   48.3287   19.7658 C.ar      1 MOL     0.0009
      3 C6         64.5167   49.5957   19.7801 C.ar      1 MOL     0.0187
      4 C7         63.4597   51.4533   18.5955 C.2       1 MOL    -0.0112
      5 C8         62.6184   51.8304   19.6003 C.2       1 MOL     0.0163
      6 C10        63.6640   52.4182   17.6802 C.2       1 MOL     0.0538
      7 N12        65.7583   46.4038   18.5279 N.ar      1 MOL    -0.2334
      8 C13        66.2094   45.8041   19.6503 C.ar      1 MOL     0.1153
      9 C15        65.5614   47.7409   20.9441 C.ar      1 MOL     0.0138
     10 C14        66.1252   46.4605   20.8852 C.ar      1 MOL     0.0445
     11 N16        66.7563   44.5909   19.5746 N.pl3     1 MOL    -0.3432
     12 C3         64.7472   48.2092   17.3812 C.ar      1 MOL     0.0295
     13 C2         64.1687   49.4808   17.3946 C.ar      1 MOL     0.0108
     14 C1         64.0620   50.1905   18.5916 C.ar      1 MOL    -0.0171
     15 C11        62.0857   53.0618   19.5599 C.2       1 MOL     0.0459
     16 S9         62.7235   53.7537   18.1761 S.3       1 MOL    -0.1054
     17 H161       67.3841   44.3663   18.8159 H         1 MOL     0.1442
     18 H162       66.5428   43.8961   20.2758 H         1 MOL     0.1442
@<TRIPOS>BOND
     1    2    1 ar
     2    1    7 ar
     3    1   12 ar
     4    3    2 ar
     5    2    9 ar
     6   14    3 ar
     7    4    5 1 
     8    4    6 2 
     9    4   14 1 
    10    5   15 2 
    11    6   16 1 
    12    7    8 ar
    13    8   10 ar
    14    8   11 1 
    15    9   10 ar
    16   12   13 ar
    17   13   14 ar
    18   15   16 1 
    19   17   11 1 
    20   18   11 1 
@<TRIPOS>SUBSTRUCTURE
1 MOL         1
@<TRIPOS>MOLECULE
query molecule
   18    20     1     0     0
SMALL
NO_CHARGE

@<TRIPOS>ATOM
      1 C4         75.0221   57.1305    8.0862 C.ar      1 MOL     0.0725
      2 C5         75.8136   56.2027    8.7678 C.ar      1 MOL     0.0009
      3 C6         76.4883   56.5870    9.9270 C.ar      1 MOL     0.0187
      4 C7         77.0568   58.2970   11.5774 C.2       1 MOL    -0.0112
      5 C8         77.2304   57.4288   12.6147 C.2       1 MOL     0.0163
      6 C10        77.6130   59.5032   11.7925 C.2       1 MOL     0.0538
      7 N12        74.3493   56.7755    6.9796 N.ar      1 MOL    -0.2334
      8 C13        74.4163   55.5199    6.4880 C.ar      1 MOL     0.1153
      9 C15        75.9098   54.8975    8.2845 C.ar      1 MOL     0.0138
     10 C14        75.2019   54.5515    7.1270 C.ar      1 MOL     0.0445
     11 N16        73.7476   55.2108    5.3772 N.pl3     1 MOL    -0.3432
     12 C3         74.9121   58.4330    8.5711 C.ar      1 MOL     0.0295
     13 C2         75.5933   58.8196    9.7280 C.ar      1 MOL     0.0108
     14 C1         76.3985   57.9040   10.4072 C.ar      1 MOL    -0.0171
     15 C11        77.8871   57.8572   13.7041 C.2       1 MOL     0.0459
     16 S9         78.3090   59.4374   13.3497 S.3       1 MOL    -0.1054
     17 H161       73.7286   55.8585    4.6024 H         1 MOL     0.1442
     18 H162       73.2598   54.3290    5.3102 H         1 MOL     0.1442
@<TRIPOS>BOND
     1    2    1 ar
     2    1    7 ar
     3    1   12 ar
     4    3    2 ar
     5    2    9 ar
     6   14    3 ar
     7    4    5 1 
     8    4    6 2 
     9    4   14 1 
    10    5   15 2 
    11    6   16 1 
    12    7    8 ar
    13    8   10 ar
    14    8   11 1 
    15    9   10 ar
    16   12   13 ar
    17   13   14 ar
    18   15   16 1 
    19   17   11 1 
    20   18   11 1 
@<TRIPOS>SUBSTRUCTURE
1 MOL         1
@<TRIPOS>MOLECULE
query molecule
   18    20     1     0     0
SMALL
NO_CHARGE

@<TRIPOS>ATOM
      1 C4         67.1719   50.3926   11.2095 C.ar      1 MOL     0.0725
      2 C5         66.0150   49.8347   11.7593 C.ar      1 MOL     0.0009
      3 C6         65.2045   49.0108   10.9777 C.ar      1 MOL     0.0187
      4 C7         64.7308   47.9136    8.8463 C.2       1 MOL    -0.0112
      5 C8         65.1526   46.6649    8.4959 C.2       1 MOL     0.0163
      6 C10        63.4952   48.2043    8.3997 C.2       1 MOL     0.0538
      7 N12        67.9755   51.1725   11.9506 N.ar      1 MOL    -0.2334
      8 C13        67.6943   51.4461   13.2424 C.ar      1 MOL     0.1153
      9 C15        65.6911   50.1009   13.0899 C.ar      1 MOL     0.0138
     10 C14        66.5425   50.9197   13.8419 C.ar      1 MOL     0.0445
     11 N16        68.5077   52.2388   13.9400 N.pl3     1 MOL    -0.3432
     12 C3         67.5074   50.1202    9.8840 C.ar      1 MOL     0.0295
     13 C2         66.6921   49.3008    9.0994 C.ar      1 MOL     0.0108
     14 C1         65.5265   48.7513    9.6353 C.ar      1 MOL    -0.0171
     15 C11        64.3372   45.8995    7.7536 C.2       1 MOL     0.0459
     16 S9         62.9684   46.8352    7.5269 S.3       1 MOL    -0.1054
     17 H161       69.1104   52.8919   13.4601 H         1 MOL     0.1442
     18 H162       68.5214   52.1864   14.9485 H         1 MOL     0.1442
@<TRIPOS>BOND
     1    2    1 ar
     2    1    7 ar
     3    1   12 ar
     4    3    2 ar
     5    2    9 ar
     6   14    3 ar
     7    4    5 1 
     8    4    6 2 
     9    4   14 1 
    10    5   15 2 
    11    6   16 1 
    12    7    8 ar
    13    8   10 ar
    14    8   11 1 
    15    9   10 ar
    16   12   13 ar
    17   13   14 ar
    18   15   16 1 
    19   17   11 1 
    20   18   11 1 
@<TRIPOS>SUBSTRUCTURE
1 MOL         1
@<TRIPOS>MOLECULE
query molecule
   18    20     1     0     0
SMALL
NO_CHARGE

@<TRIPOS>ATOM
      1 C4         66.5381   53.1115   10.4094 C.ar      1 MOL     0.0725
      2 C5         65.7855   51.9616   10.1578 C.ar      1 MOL     0.0009
      3 C6         66.4316   50.7675    9.8364 C.ar      1 MOL     0.0187
      4 C7         68.4922   49.5163    9.4366 C.2       1 MOL    -0.0112
      5 C8         69.4732   49.0257   10.2469 C.2       1 MOL     0.0163
      6 C10        68.2206   48.7211    8.3857 C.2       1 MOL     0.0538
      7 N12        65.9365   54.2657   10.7392 N.ar      1 MOL    -0.2334
      8 C13        64.5928   54.3565   10.8350 C.ar      1 MOL     0.1153
      9 C15        64.3943   52.0208   10.2426 C.ar      1 MOL     0.0138
     10 C14        63.7891   53.2364   10.5849 C.ar      1 MOL     0.0445
     11 N16        64.0321   55.5244   11.1481 N.pl3     1 MOL    -0.3432
     12 C3         67.9294   53.0556   10.3383 C.ar      1 MOL     0.0295
     13 C2         68.5759   51.8615   10.0097 C.ar      1 MOL     0.0108
     14 C1         67.8319   50.7115    9.7417 C.ar      1 MOL    -0.0171
     15 C11        70.0571   47.8642    9.9126 C.2       1 MOL     0.0459
     16 S9         69.2825   47.3900    8.5071 S.3       1 MOL    -0.1054
     17 H161       64.5330   56.3857   10.9821 H         1 MOL     0.1442
     18 H162       63.1064   55.5483   11.5512 H         1 MOL     0.1442
@<TRIPOS>BOND
     1    2    1 ar
     2    1    7 ar
     3    1   12 ar
     4    3    2 ar
     5    2    9 ar
     6   14    3 ar
     7    4    5 1 
     8    4    6 2 
     9    4   14 1 
    10    5   15 2 
    11    6   16 1 
    12    7    8 ar
    13    8   10 ar
    14    8   11 1 
    15    9   10 ar
    16   12   13 ar
    17   13   14 ar
    18   15   16 1 
    19   17   11 1 
    20   18   11 1 
@<TRIPOS>SUBSTRUCTURE
1 MOL         1
@<TRIPOS>MOLECULE
query molecule
   18    20     1     0     0
SMALL
NO_CHARGE

@<TRIPOS>ATOM
      1 C4         67.0023   53.2859   11.7972 C.ar      1 MOL     0.0725
      2 C5         68.1807   53.7371   11.1975 C.ar      1 MOL     0.0009
      3 C6         69.3757   53.0510   11.4160 C.ar      1 MOL     0.0187
      4 C7         70.6021   51.2156   12.4641 C.2       1 MOL    -0.0112
      5 C8         70.9263   50.1329   11.7009 C.2       1 MOL     0.0163
      6 C10        71.5450   51.5311   13.3706 C.2       1 MOL     0.0538
      7 N12        65.8383   53.9207   11.5840 N.ar      1 MOL    -0.2334
      8 C13        65.7666   55.0114   10.7916 C.ar      1 MOL     0.1153
      9 C15        68.1439   54.8646   10.3767 C.ar      1 MOL     0.0138
     10 C14        66.9192   55.5119   10.1719 C.ar      1 MOL     0.0445
     11 N16        64.5956   55.6240   10.6185 N.pl3     1 MOL    -0.3432
     12 C3         67.0303   52.1525   12.6086 C.ar      1 MOL     0.0295
     13 C2         68.2283   51.4696   12.8330 C.ar      1 MOL     0.0108
     14 C1         69.4133   51.9217   12.2505 C.ar      1 MOL    -0.0171
     15 C11        72.0897   49.5075   11.9399 C.2       1 MOL     0.0459
     16 S9         72.7894   50.3772   13.1867 S.3       1 MOL    -0.1054
     17 H161       63.8617   55.5136   11.3036 H         1 MOL     0.1442
     18 H162       64.4420   56.1987    9.8023 H         1 MOL     0.1442
@<TRIPOS>BOND
     1    2    1 ar
     2    1    7 ar
     3    1   12 ar
     4    3    2 ar
     5    2    9 ar
     6   14    3 ar
     7    4    5 1 
     8    4    6 2 
     9    4   14 1 
    10    5   15 2 
    11    6   16 1 
    12    7    8 ar
    13    8   10 ar
    14    8   11 1 
    15    9   10 ar
    16   12   13 ar
    17   13   14 ar
    18   15   16 1 
    19   17   11 1 
    20   18   11 1 
@<TRIPOS>SUBSTRUCTURE
1 MOL         1
@<TRIPOS>MOLECULE
query molecule
   18    20     1     0     0
SMALL
NO_CHARGE

@<TRIPOS>ATOM
      1 C4         76.1812   42.3971    7.7897 C.ar      1 MOL     0.0725
      2 C5         77.5643   42.4227    7.9856 C.ar      1 MOL     0.0009
      3 C6         78.4092   41.8485    7.0353 C.ar      1 MOL     0.0187
      4 C7         78.7220   40.6603    4.9230 C.2       1 MOL    -0.0112
      5 C8         79.1807   39.3820    5.0460 C.2       1 MOL     0.0163
      6 C10        79.1179   41.2623    3.7866 C.2       1 MOL     0.0538
      7 N12        75.3521   42.9611    8.6827 N.ar      1 MOL    -0.2334
      8 C13        75.8216   43.5650    9.7952 C.ar      1 MOL     0.1153
      9 C15        78.0837   43.0338    9.1271 C.ar      1 MOL     0.0138
     10 C14        77.1993   43.6122   10.0459 C.ar      1 MOL     0.0445
     11 N16        74.9655   44.0981   10.6666 N.pl3     1 MOL    -0.3432
     12 C3         75.6568   41.7988    6.6448 C.ar      1 MOL     0.0295
     13 C2         76.5025   41.2177    5.6967 C.ar      1 MOL     0.0108
     14 C1         77.8845   41.2249    5.8912 C.ar      1 MOL    -0.0171
     15 C11        79.9653   38.8881    4.0754 C.2       1 MOL     0.0459
     16 S9         80.0873   40.1278    2.9579 S.3       1 MOL    -0.1054
     17 H161       75.3115   44.5912   11.4774 H         1 MOL     0.1442
     18 H162       73.9708   44.0092   10.5162 H         1 MOL     0.1442
@<TRIPOS>BOND
     1    2    1 ar
     2    1    7 ar
     3    1   12 ar
     4    3    2 ar
     5    2    9 ar
     6   14    3 ar
     7    4    5 1 
     8    4    6 2 
     9    4   14 1 
    10    5   15 2 
    11    6   16 1 
    12    7    8 ar
    13    8   10 ar
    14    8   11 1 
    15    9   10 ar
    16   12   13 ar
    17   13   14 ar
    18   15   16 1 
    19   17   11 1 
    20   18   11 1 
@<TRIPOS>SUBSTRUCTURE
1 MOL         1
@<TRIPOS>MOLECULE
query molecule
   18    20     1     0     0
SMALL
NO_CHARGE

@<TRIPOS>ATOM
      1 C4         68.8770   49.9693    8.3932 C.ar      1 MOL     0.0725
      2 C5         69.0893   48.8992    9.2661 C.ar      1 MOL     0.0009
      3 C6         69.7414   49.1148   10.4805 C.ar      1 MOL     0.0187
      4 C7         70.8476   50.6256   12.0506 C.2       1 MOL    -0.0112
      5 C8         72.0241   50.0086   12.3586 C.2       1 MOL     0.0163
      6 C10        70.4272   51.4789   13.0023 C.2       1 MOL     0.0538
      7 N12        68.2344   49.7864    7.2284 N.ar      1 MOL    -0.2334
      8 C13        67.7773   48.5706    6.8604 C.ar      1 MOL     0.1153
      9 C15        68.6348   47.6278    8.9150 C.ar      1 MOL     0.0138
     10 C14        67.9704   47.4609    7.6937 C.ar      1 MOL     0.0445
     11 N16        67.1595   48.4262    5.6882 N.pl3     1 MOL    -0.3432
     12 C3         69.3179   51.2446    8.7440 C.ar      1 MOL     0.0295
     13 C2         69.9770   51.4591    9.9570 C.ar      1 MOL     0.0108
     14 C1         70.2071   50.3935   10.8285 C.ar      1 MOL    -0.0171
     15 C11        72.6016   50.2858   13.5382 C.2       1 MOL     0.0459
     16 S9         71.5844   51.4047   14.2550 S.3       1 MOL    -0.1054
     17 H161       66.7748   47.5295    5.4271 H         1 MOL     0.1442
     18 H162       67.0758   49.2135    5.0611 H         1 MOL     0.1442
@<TRIPOS>BOND
     1    2    1 ar
     2    1    7 ar
     3    1   12 ar
     4    3    2 ar
     5    2    9 ar
     6   14    3 ar
     7    4    5 1 
     8    4    6 2 
     9    4   14 1 
    10    5   15 2 
    11    6   16 1 
    12    7    8 ar
    13    8   10 ar
    14    8   11 1 
    15    9   10 ar
    16   12   13 ar
    17   13   14 ar
    18   15   16 1 
    19   17   11 1 
    20   18   11 1 
@<TRIPOS>SUBSTRUCTURE
1 MOL         1
@<TRIPOS>MOLECULE
query molecule
   18    20     1     0     0
SMALL
NO_CHARGE

@<TRIPOS>ATOM
      1 C4         76.3533   43.4855    7.9381 C.ar      1 MOL     0.0725
      2 C5         77.1144   44.1216    6.9542 C.ar      1 MOL     0.0009
      3 C6         76.4765   44.8260    5.9327 C.ar      1 MOL     0.0187
      4 C7         74.4237   45.6034    4.8591 C.2       1 MOL    -0.0112
      5 C8         73.8271   44.9642    3.8125 C.2       1 MOL     0.0163
      6 C10        74.2730   46.9400    4.8239 C.2       1 MOL     0.0538
      7 N12        76.9483   42.8188    8.9405 N.ar      1 MOL    -0.2334
      8 C13        78.2929   42.7368    9.0303 C.ar      1 MOL     0.1153
      9 C15        78.5065   44.0527    7.0133 C.ar      1 MOL     0.0138
     10 C14        79.1044   43.3489    8.0659 C.ar      1 MOL     0.0445
     11 N16        78.8457   42.0511   10.0307 N.pl3     1 MOL    -0.3432
     12 C3         74.9620   43.5612    7.8915 C.ar      1 MOL     0.0295
     13 C2         74.3232   44.2608    6.8647 C.ar      1 MOL     0.0108
     14 C1         75.0746   44.8865    5.8689 C.ar      1 MOL    -0.0171
     15 C11        73.2009   45.7044    2.8842 C.2       1 MOL     0.0459
     16 S9         73.3801   47.2830    3.4100 S.3       1 MOL    -0.1054
     17 H161       79.8505   42.0240   10.1298 H         1 MOL     0.1442
     18 H162       78.2598   41.5586   10.6897 H         1 MOL     0.1442
@<TRIPOS>BOND
     1    2    1 ar
     2    1    7 ar
     3    1   12 ar
     4    3    2 ar
     5    2    9 ar
     6   14    3 ar
     7    4    5 1 
     8    4    6 2 
     9    4   14 1 
    10    5   15 2 
    11    6   16 1 
    12    7    8 ar
    13    8   10 ar
    14    8   11 1 
    15    9   10 ar
    16   12   13 ar
    17   13   14 ar
    18   15   16 1 
    19   17   11 1 
    20   18   11 1 
@<TRIPOS>SUBSTRUCTURE
1 MOL         1
@<TRIPOS>MOLECULE
query molecule
   18    20     1     0     0
SMALL
NO_CHARGE

@<TRIPOS>ATOM
      1 C4         76.0937   41.7222   13.1827 C.ar      1 MOL     0.0725
      2 C5         76.4785   42.7068   14.0961 C.ar      1 MOL     0.0009
      3 C6         76.1695   42.5560   15.4482 C.ar      1 MOL     0.0187
      4 C7         75.1549   41.2631   17.2567 C.2       1 MOL    -0.0112
      5 C8         73.9550   41.6613   17.7681 C.2       1 MOL     0.0163
      6 C10        75.9524   40.6720   18.1650 C.2       1 MOL     0.0538
      7 N12        76.3983   41.8391   11.8801 N.ar      1 MOL    -0.2334
      8 C13        77.0788   42.9061   11.4098 C.ar      1 MOL     0.1153
      9 C15        77.1785   43.8256   13.6436 C.ar      1 MOL     0.0138
     10 C14        77.4819   43.9273   12.2804 C.ar      1 MOL     0.0445
     11 N16        77.3471   42.9943   10.1072 N.pl3     1 MOL    -0.3432
     12 C3         75.4048   40.5959   13.6306 C.ar      1 MOL     0.0295
     13 C2         75.0893   40.4483   14.9836 C.ar      1 MOL     0.0108
     14 C1         75.4562   41.4338   15.9012 C.ar      1 MOL    -0.0171
     15 C11        73.7154   41.4536   19.0724 C.2       1 MOL     0.0459
     16 S9         75.0942   40.6942   19.6404 S.3       1 MOL    -0.1054
     17 H161       76.9009   43.7062    9.5467 H         1 MOL     0.1442
     18 H162       77.9967   42.3493    9.6805 H         1 MOL     0.1442
@<TRIPOS>BOND
     1    2    1 ar
     2    1    7 ar
     3    1   12 ar
     4    3    2 ar
     5    2    9 ar
     6   14    3 ar
     7    4    5 1 
     8    4    6 2 
     9    4   14 1 
    10    5   15 2 
    11    6   16 1 
    12    7    8 ar
    13    8   10 ar
    14    8   11 1 
    15    9   10 ar
    16   12   13 ar
    17   13   14 ar
    18   15   16 1 
    19   17   11 1 
    20   18   11 1 
@<TRIPOS>SUBSTRUCTURE
1 MOL         1
@<TRIPOS>MOLECULE
query molecule
   18    20     1     0     0
SMALL
NO_CHARGE

@<TRIPOS>ATOM
      1 C4         62.6817   48.0670   17.0226 C.ar      1 MOL     0.0725
      2 C5         63.9277   48.6040   16.6896 C.ar      1 MOL     0.0009
      3 C6         64.1750   49.9612   16.8975 C.ar      1 MOL     0.0187
      4 C7         63.4187   52.1604   17.6479 C.2       1 MOL    -0.0112
      5 C8         62.5575   52.9147   18.3889 C.2       1 MOL     0.0163
      6 C10        64.4989   52.8430   17.2265 C.2       1 MOL     0.0538
      7 N12        62.4302   46.7595   16.8484 N.ar      1 MOL    -0.2334
      8 C13        63.3641   45.9244   16.3453 C.ar      1 MOL     0.1153
      9 C15        64.9145   47.7705   16.1623 C.ar      1 MOL     0.0138
     10 C14        64.6279   46.4112   15.9864 C.ar      1 MOL     0.0445
     11 N16        63.0704   44.6360   16.1710 N.pl3     1 MOL    -0.3432
     12 C3         61.6957   48.8924   17.5615 C.ar      1 MOL     0.0295
     13 C2         61.9410   50.2528   17.7632 C.ar      1 MOL     0.0108
     14 C1         63.1775   50.8013   17.4194 C.ar      1 MOL    -0.0171
     15 C11        62.8519   54.2087   18.5905 C.2       1 MOL     0.0459
     16 S9         64.3114   54.4381   17.8046 S.3       1 MOL    -0.1054
     17 H161       62.9985   44.2562   15.2379 H         1 MOL     0.1442
     18 H162       62.9197   44.0395   16.9719 H         1 MOL     0.1442
@<TRIPOS>BOND
     1    2    1 ar
     2    1    7 ar
     3    1   12 ar
     4    3    2 ar
     5    2    9 ar
     6   14    3 ar
     7    4    5 1 
     8    4    6 2 
     9    4   14 1 
    10    5   15 2 
    11    6   16 1 
    12    7    8 ar
    13    8   10 ar
    14    8   11 1 
    15    9   10 ar
    16   12   13 ar
    17   13   14 ar
    18   15   16 1 
    19   17   11 1 
    20   18   11 1 
@<TRIPOS>SUBSTRUCTURE
1 MOL         1
@<TRIPOS>MOLECULE
query molecule
   18    20     1     0     0
SMALL
NO_CHARGE

@<TRIPOS>ATOM
      1 C4         64.1407   45.1004   16.7666 C.ar      1 MOL     0.0725
      2 C5         64.0654   44.8016   18.1293 C.ar      1 MOL     0.0009
      3 C6         63.5785   43.5605   18.5404 C.ar      1 MOL     0.0187
      4 C7         62.6674   41.3586   17.9988 C.2       1 MOL    -0.0112
      5 C8         61.5016   40.8549   17.5018 C.2       1 MOL     0.0163
      6 C10        63.2951   40.5186   18.8419 C.2       1 MOL     0.0538
      7 N12        64.6245   46.2816   16.3498 N.ar      1 MOL    -0.2334
      8 C13        65.0485   47.2170   17.2262 C.ar      1 MOL     0.1153
      9 C15        64.4901   45.7473   19.0629 C.ar      1 MOL     0.0138
     10 C14        64.9876   46.9734   18.6046 C.ar      1 MOL     0.0445
     11 N16        65.5060   48.3843   16.7737 N.pl3     1 MOL    -0.3432
     12 C3         63.7295   44.1546   15.8285 C.ar      1 MOL     0.0295
     13 C2         63.2354   42.9145   16.2404 C.ar      1 MOL     0.0108
     14 C1         63.1421   42.6128   17.5998 C.ar      1 MOL    -0.0171
     15 C11        61.1069   39.6377   17.9070 C.2       1 MOL     0.0459
     16 S9         62.3100   39.1290   18.9531 S.3       1 MOL    -0.1054
     17 H161       64.9832   49.2317   16.9433 H         1 MOL     0.1442
     18 H162       66.3756   48.4215   16.2613 H         1 MOL     0.1442
@<TRIPOS>BOND
     1    2    1 ar
     2    1    7 ar
     3    1   12 ar
     4    3    2 ar
     5    2    9 ar
     6   14    3 ar
     7    4    5 1 
     8    4    6 2 
     9    4   14 1 
    10    5   15 2 
    11    6   16 1 
    12    7    8 ar
    13    8   10 ar
    14    8   11 1 
    15    9   10 ar
    16   12   13 ar
    17   13   14 ar
    18   15   16 1 
    19   17   11 1 
    20   18   11 1 
@<TRIPOS>SUBSTRUCTURE
1 MOL         1
@<TRIPOS>MOLECULE
query molecule
   18    20     1     0     0
SMALL
NO_CHARGE

@<TRIPOS>ATOM
      1 C4         71.5361   49.3893    9.3640 C.ar      1 MOL     0.0725
      2 C5         70.8957   50.3310    8.5547 C.ar      1 MOL     0.0009
      3 C6         69.5280   50.5599    8.7077 C.ar      1 MOL     0.0187
      4 C7         67.4118   50.0710    9.8276 C.2       1 MOL    -0.0112
      5 C8         66.9476   50.7851   10.8926 C.2       1 MOL     0.0163
      6 C10        66.4400   49.6793    8.9833 C.2       1 MOL     0.0538
      7 N12        72.8553   49.1681    9.2458 N.ar      1 MOL    -0.2334
      8 C13        73.6034   49.8401    8.3449 C.ar      1 MOL     0.1153
      9 C15        71.6374   51.0398    7.6093 C.ar      1 MOL     0.0138
     10 C14        73.0110   50.7896    7.5020 C.ar      1 MOL     0.0445
     11 N16        74.9069   49.5798    8.2460 N.pl3     1 MOL    -0.3432
     12 C3         70.8027   48.6867   10.3191 C.ar      1 MOL     0.0295
     13 C2         69.4318   48.9110   10.4675 C.ar      1 MOL     0.0108
     14 C1         68.7804   49.8387    9.6533 C.ar      1 MOL    -0.0171
     15 C11        65.6254   50.9921   10.9962 C.2       1 MOL     0.0459
     16 S9         64.9735   50.2481    9.6463 S.3       1 MOL    -0.1054
     17 H161       75.2245   48.7914    7.7003 H         1 MOL     0.1442
     18 H162       75.5771   50.1709    8.7167 H         1 MOL     0.1442
@<TRIPOS>BOND
     1    2    1 ar
     2    1    7 ar
     3    1   12 ar
     4    3    2 ar
     5    2    9 ar
     6   14    3 ar
     7    4    5 1 
     8    4    6 2 
     9    4   14 1 
    10    5   15 2 
    11    6   16 1 
    12    7    8 ar
    13    8   10 ar
    14    8   11 1 
    15    9   10 ar
    16   12   13 ar
    17   13   14 ar
    18   15   16 1 
    19   17   11 1 
    20   18   11 1 
@<TRIPOS>SUBSTRUCTURE
1 MOL         1
@<TRIPOS>MOLECULE
query molecule
   18    20     1     0     0
SMALL
NO_CHARGE

@<TRIPOS>ATOM
      1 C4         69.2837   49.1021    8.6566 C.ar      1 MOL     0.0725
      2 C5         69.8853   48.1030    9.4259 C.ar      1 MOL     0.0009
      3 C6         70.5849   48.4467   10.5830 C.ar      1 MOL     0.0187
      4 C7         71.3954   50.1459   12.1410 C.2       1 MOL    -0.0112
      5 C8         72.5923   49.5746   12.4584 C.2       1 MOL     0.0163
      6 C10        71.0003   51.0822   13.0230 C.2       1 MOL     0.0538
      7 N12        68.5895   48.7904    7.5502 N.ar      1 MOL    -0.2334
      8 C13        68.4524   47.5105    7.1429 C.ar      1 MOL     0.1153
      9 C15        69.7681   46.7700    9.0312 C.ar      1 MOL     0.0138
     10 C14        69.0422   46.4696    7.8721 C.ar      1 MOL     0.0445
     11 N16        67.7701   47.2431    6.0295 N.pl3     1 MOL    -0.3432
     12 C3         69.3868   50.4348    9.0526 C.ar      1 MOL     0.0295
     13 C2         70.0933   50.7796   10.2074 C.ar      1 MOL     0.0108
     14 C1         70.7105   49.7900   10.9741 C.ar      1 MOL    -0.0171
     15 C11        73.2120   49.9706   13.5813 C.2       1 MOL     0.0459
     16 S9         72.2073   51.1420   14.2286 S.3       1 MOL    -0.1054
     17 H161       68.2205   47.3255    5.1291 H         1 MOL     0.1442
     18 H162       66.8029   46.9580    6.0860 H         1 MOL     0.1442
@<TRIPOS>BOND
     1    2    1 ar
     2    1    7 ar
     3    1   12 ar
     4    3    2 ar
     5    2    9 ar
     6   14    3 ar
     7    4    5 1 
     8    4    6 2 
     9    4   14 1 
    10    5   15 2 
    11    6   16 1 
    12    7    8 ar
    13    8   10 ar
    14    8   11 1 
    15    9   10 ar
    16   12   13 ar
    17   13   14 ar
    18   15   16 1 
    19   17   11 1 
    20   18   11 1 
@<TRIPOS>SUBSTRUCTURE
1 MOL         1
@<TRIPOS>MOLECULE
query molecule
   18    20     1     0     0
SMALL
NO_CHARGE

@<TRIPOS>ATOM
      1 C4         69.7744   49.9854    9.2585 C.ar      1 MOL     0.0725
      2 C5         70.3218   48.7453    9.5967 C.ar      1 MOL     0.0009
      3 C6         71.1035   48.6235   10.7459 C.ar      1 MOL     0.0187
      4 C7         72.1335   49.6263   12.7219 C.2       1 MOL    -0.0112
      5 C8         72.3804   50.7101   13.5120 C.2       1 MOL     0.0163
      6 C10        72.6557   48.4841   13.2046 C.2       1 MOL     0.0538
      7 N12        69.0034   50.1195    8.1673 N.ar      1 MOL    -0.2334
      8 C13        68.7351   49.0696    7.3621 C.ar      1 MOL     0.1153
      9 C15        70.0693   47.6399    8.7839 C.ar      1 MOL     0.0138
     10 C14        69.2653   47.8049    7.6493 C.ar      1 MOL     0.0445
     11 N16        67.9796   49.2467    6.2783 N.pl3     1 MOL    -0.3432
     12 C3         70.0129   51.0911   10.0736 C.ar      1 MOL     0.0295
     13 C2         70.8014   50.9705   11.2206 C.ar      1 MOL     0.0108
     14 C1         71.3651   49.7392   11.5582 C.ar      1 MOL    -0.0171
     15 C11        73.1079   50.5364   14.6265 C.2       1 MOL     0.0459
     16 S9         73.4599   48.9005   14.6515 S.3       1 MOL    -0.1054
     17 H161       68.3919   49.6034    5.4281 H         1 MOL     0.1442
     18 H162       66.9949   49.0243    6.3073 H         1 MOL     0.1442
@<TRIPOS>BOND
     1    2    1 ar
     2    1    7 ar
     3    1   12 ar
     4    3    2 ar
     5    2    9 ar
     6   14    3 ar
     7    4    5 1 
     8    4    6 2 
     9    4   14 1 
    10    5   15 2 
    11    6   16 1 
    12    7    8 ar
    13    8   10 ar
    14    8   11 1 
    15    9   10 ar
    16   12   13 ar
    17   13   14 ar
    18   15   16 1 
    19   17   11 1 
    20   18   11 1 
@<TRIPOS>SUBSTRUCTURE
1 MOL         1
@<TRIPOS>MOLECULE
query molecule
   18    20     1     0     0
SMALL
NO_CHARGE

@<TRIPOS>ATOM
      1 C4         70.5391   40.1506   15.0459 C.ar      1 MOL     0.0725
      2 C5         69.9917   39.4744   16.1391 C.ar      1 MOL     0.0009
      3 C6         70.6290   39.5318   17.3788 C.ar      1 MOL     0.0187
      4 C7         72.4682   40.3241   18.7793 C.2       1 MOL    -0.0112
      5 C8         73.1612   39.2637   19.2842 C.2       1 MOL     0.0163
      6 C10        72.5156   41.4154   19.5649 C.2       1 MOL     0.0538
      7 N12        69.9309   40.1239   13.8490 N.ar      1 MOL    -0.2334
      8 C13        68.7795   39.4446   13.6599 C.ar      1 MOL     0.1153
      9 C15        68.8055   38.7580   15.9780 C.ar      1 MOL     0.0138
     10 C14        68.1913   38.7418   14.7197 C.ar      1 MOL     0.0445
     11 N16        68.2154   39.4277   12.4524 N.pl3     1 MOL    -0.3432
     12 C3         71.7177   40.8784   15.2036 C.ar      1 MOL     0.0295
     13 C2         72.3596   40.9301   16.4434 C.ar      1 MOL     0.0108
     14 C1         71.8285   40.2454   17.5375 C.ar      1 MOL    -0.0171
     15 C11        73.7706   39.4051   20.4718 C.2       1 MOL     0.0459
     16 S9         73.4443   40.9813   20.9298 S.3       1 MOL    -0.1054
     17 H161       68.7888   39.3152   11.6286 H         1 MOL     0.1442
     18 H162       67.2145   39.5274   12.3612 H         1 MOL     0.1442
@<TRIPOS>BOND
     1    2    1 ar
     2    1    7 ar
     3    1   12 ar
     4    3    2 ar
     5    2    9 ar
     6   14    3 ar
     7    4    5 1 
     8    4    6 2 
     9    4   14 1 
    10    5   15 2 
    11    6   16 1 
    12    7    8 ar
    13    8   10 ar
    14    8   11 1 
    15    9   10 ar
    16   12   13 ar
    17   13   14 ar
    18   15   16 1 
    19   17   11 1 
    20   18   11 1 
@<TRIPOS>SUBSTRUCTURE
1 MOL         1
@<TRIPOS>MOLECULE
query molecule
   18    20     1     0     0
SMALL
NO_CHARGE

@<TRIPOS>ATOM
      1 C4         66.5287   50.5084    9.3865 C.ar      1 MOL     0.0725
      2 C5         65.9653   50.0301   10.5722 C.ar      1 MOL     0.0009
      3 C6         65.1819   48.8758   10.5504 C.ar      1 MOL     0.0187
      4 C7         64.1643   47.0307    9.3129 C.2       1 MOL    -0.0112
      5 C8         64.7405   45.8019    9.4458 C.2       1 MOL     0.0163
      6 C10        62.8243   46.9825    9.2007 C.2       1 MOL     0.0538
      7 N12        67.3015   51.6065    9.3892 N.ar      1 MOL    -0.2334
      8 C13        67.5566   52.2844   10.5285 C.ar      1 MOL     0.1153
      9 C15        66.2039   50.7092   11.7672 C.ar      1 MOL     0.0138
     10 C14        67.0102   51.8539   11.7447 C.ar      1 MOL     0.0445
     11 N16        68.3146   53.3801   10.4874 N.pl3     1 MOL    -0.3432
     12 C3         66.3041   49.8270    8.1911 C.ar      1 MOL     0.0295
     13 C2         65.5139   48.6751    8.1683 C.ar      1 MOL     0.0108
     14 C1         64.9344   48.1983    9.3450 C.ar      1 MOL    -0.0171
     15 C11        63.9480   44.7187    9.4266 C.2       1 MOL     0.0459
     16 S9         62.4000   45.3298    9.2514 S.3       1 MOL    -0.1054
     17 H161       68.1949   54.0492    9.7404 H         1 MOL     0.1442
     18 H162       69.0085   53.5413   11.2033 H         1 MOL     0.1442
@<TRIPOS>BOND
     1    2    1 ar
     2    1    7 ar
     3    1   12 ar
     4    3    2 ar
     5    2    9 ar
     6   14    3 ar
     7    4    5 1 
     8    4    6 2 
     9    4   14 1 
    10    5   15 2 
    11    6   16 1 
    12    7    8 ar
    13    8   10 ar
    14    8   11 1 
    15    9   10 ar
    16   12   13 ar
    17   13   14 ar
    18   15   16 1 
    19   17   11 1 
    20   18   11 1 
@<TRIPOS>SUBSTRUCTURE
1 MOL         1
@<TRIPOS>MOLECULE
query molecule
   18    20     1     0     0
SMALL
NO_CHARGE

@<TRIPOS>ATOM
      1 C4         71.9756   43.4828    5.5675 C.ar      1 MOL     0.0725
      2 C5         71.5865   44.0552    6.7812 C.ar      1 MOL     0.0009
      3 C6         72.0321   45.3335    7.1184 C.ar      1 MOL     0.0187
      4 C7         73.3263   47.3352    6.5797 C.2       1 MOL    -0.0112
      5 C8         72.4907   48.4089    6.4869 C.2       1 MOL     0.0163
      6 C10        74.5509   47.6501    7.0397 C.2       1 MOL     0.0538
      7 N12        71.5420   42.2615    5.2156 N.ar      1 MOL    -0.2334
      8 C13        70.7241   41.5472    6.0178 C.ar      1 MOL     0.1153
      9 C15        70.7461   43.3426    7.6369 C.ar      1 MOL     0.0138
     10 C14        70.3097   42.0695    7.2501 C.ar      1 MOL     0.0445
     11 N16        70.3293   40.3312    5.6410 N.pl3     1 MOL    -0.3432
     12 C3         72.8053   44.1949    4.7025 C.ar      1 MOL     0.0295
     13 C2         73.2570   45.4722    5.0434 C.ar      1 MOL     0.0108
     14 C1         72.8861   46.0461    6.2604 C.ar      1 MOL    -0.0171
     15 C11        72.9640   49.6185    6.8255 C.2       1 MOL     0.0459
     16 S9         74.5438   49.3371    7.3005 S.3       1 MOL    -0.1054
     17 H161       70.9883   39.6960    5.2137 H         1 MOL     0.1442
     18 H162       69.3712   40.0447    5.7827 H         1 MOL     0.1442
@<TRIPOS>BOND
     1    2    1 ar
     2    1    7 ar
     3    1   12 ar
     4    3    2 ar
     5    2    9 ar
     6   14    3 ar
     7    4    5 1 
     8    4    6 2 
     9    4   14 1 
    10    5   15 2 
    11    6   16 1 
    12    7    8 ar
    13    8   10 ar
    14    8   11 1 
    15    9   10 ar
    16   12   13 ar
    17   13   14 ar
    18   15   16 1 
    19   17   11 1 
    20   18   11 1 
@<TRIPOS>SUBSTRUCTURE
1 MOL         1
@<TRIPOS>MOLECULE
query molecule
   18    20     1     0     0
SMALL
NO_CHARGE

@<TRIPOS>ATOM
      1 C4         61.3879   47.7003   15.4067 C.ar      1 MOL     0.0725
      2 C5         61.0177   46.4385   14.9349 C.ar      1 MOL     0.0009
      3 C6         61.5386   45.2933   15.5381 C.ar      1 MOL     0.0187
      4 C7         62.9657   44.2525   17.2268 C.2       1 MOL    -0.0112
      5 C8         62.2050   43.5106   18.0816 C.2       1 MOL     0.0163
      6 C10        64.1973   43.7467   17.0325 C.2       1 MOL     0.0538
      7 N12        60.8829   48.8144   14.8526 N.ar      1 MOL    -0.2334
      8 C13        60.0090   48.7552   13.8251 C.ar      1 MOL     0.1153
      9 C15        60.1207   46.3405   13.8710 C.ar      1 MOL     0.0138
     10 C14        59.6100   47.5161   13.3070 C.ar      1 MOL     0.0445
     11 N16        59.5433   49.8839   13.2906 N.pl3     1 MOL    -0.3432
     12 C3         62.2744   47.8046   16.4777 C.ar      1 MOL     0.0295
     13 C2         62.8013   46.6579   17.0772 C.ar      1 MOL     0.0108
     14 C1         62.4493   45.3934   16.6030 C.ar      1 MOL    -0.0171
     15 C11        62.7488   42.4153   18.6349 C.2       1 MOL     0.0459
     16 S9         64.2952   42.3432   17.9992 S.3       1 MOL    -0.1054
     17 H161       59.1569   49.8789   12.3575 H         1 MOL     0.1442
     18 H162       59.5769   50.7442   13.8187 H         1 MOL     0.1442
@<TRIPOS>BOND
     1    2    1 ar
     2    1    7 ar
     3    1   12 ar
     4    3    2 ar
     5    2    9 ar
     6   14    3 ar
     7    4    5 1 
     8    4    6 2 
     9    4   14 1 
    10    5   15 2 
    11    6   16 1 
    12    7    8 ar
    13    8   10 ar
    14    8   11 1 
    15    9   10 ar
    16   12   13 ar
    17   13   14 ar
    18   15   16 1 
    19   17   11 1 
    20   18   11 1 
@<TRIPOS>SUBSTRUCTURE
1 MOL         1
@<TRIPOS>MOLECULE
query molecule
   18    20     1     0     0
SMALL
NO_CHARGE

@<TRIPOS>ATOM
      1 C4         72.0666   44.8097    9.0492 C.ar      1 MOL     0.0725
      2 C5         72.5400   46.0038    8.4997 C.ar      1 MOL     0.0009
      3 C6         71.6558   47.0576    8.2671 C.ar      1 MOL     0.0187
      4 C7         69.3947   47.9810    8.3464 C.2       1 MOL    -0.0112
      5 C8         69.0170   48.3417    7.0867 C.2       1 MOL     0.0163
      6 C10        68.7926   48.7008    9.3108 C.2       1 MOL     0.0538
      7 N12        72.9045   43.7905    9.2988 N.ar      1 MOL    -0.2334
      8 C13        74.2236   43.8813    9.0260 C.ar      1 MOL     0.1153
      9 C15        73.8967   46.1301    8.2005 C.ar      1 MOL     0.0138
     10 C14        74.7507   45.0527    8.4663 C.ar      1 MOL     0.0445
     11 N16        75.0203   42.8414    9.2720 N.pl3     1 MOL    -0.3432
     12 C3         70.7139   44.6818    9.3619 C.ar      1 MOL     0.0295
     13 C2         69.8274   45.7347    9.1225 C.ar      1 MOL     0.0108
     14 C1         70.2883   46.9258    8.5597 C.ar      1 MOL    -0.0171
     15 C11        68.1416   49.3494    6.9456 C.2       1 MOL     0.0459
     16 S9         67.7861   49.8235    8.5107 S.3       1 MOL    -0.1054
     17 H161       75.9115   42.7658    8.8027 H         1 MOL     0.1442
     18 H162       74.7328   42.1289    9.9276 H         1 MOL     0.1442
@<TRIPOS>BOND
     1    2    1 ar
     2    1    7 ar
     3    1   12 ar
     4    3    2 ar
     5    2    9 ar
     6   14    3 ar
     7    4    5 1 
     8    4    6 2 
     9    4   14 1 
    10    5   15 2 
    11    6   16 1 
    12    7    8 ar
    13    8   10 ar
    14    8   11 1 
    15    9   10 ar
    16   12   13 ar
    17   13   14 ar
    18   15   16 1 
    19   17   11 1 
    20   18   11 1 
@<TRIPOS>SUBSTRUCTURE
1 MOL         1
@<TRIPOS>MOLECULE
query molecule
   18    20     1     0     0
SMALL
NO_CHARGE

@<TRIPOS>ATOM
      1 C4         70.1470   50.5586   11.7445 C.ar      1 MOL     0.0725
      2 C5         69.7316   50.4181   10.4180 C.ar      1 MOL     0.0009
      3 C6         70.6268   49.9444    9.4584 C.ar      1 MOL     0.0187
      4 C7         72.8522   49.1343    8.8560 C.2       1 MOL    -0.0112
      5 C8         73.7914   49.9447    8.2897 C.2       1 MOL     0.0163
      6 C10        72.9305   47.8564    8.4422 C.2       1 MOL     0.0538
      7 N12        69.2953   50.9944   12.6868 N.ar      1 MOL    -0.2334
      8 C13        68.0181   51.3136   12.3874 C.ar      1 MOL     0.1153
      9 C15        68.4199   50.7440   10.0723 C.ar      1 MOL     0.0138
     10 C14        67.5509   51.1996   11.0714 C.ar      1 MOL     0.0445
     11 N16        67.2081   51.7592   13.3475 N.pl3     1 MOL    -0.3432
     12 C3         71.4530   50.2228   12.0985 C.ar      1 MOL     0.0295
     13 C2         72.3513   49.7551   11.1362 C.ar      1 MOL     0.0108
     14 C1         71.9500   49.6259    9.8058 C.ar      1 MOL    -0.0171
     15 C11        74.6424   49.4118    7.3989 C.2       1 MOL     0.0459
     16 S9         74.2133   47.7963    7.3177 S.3       1 MOL    -0.1054
     17 H161       66.3811   52.2864   13.1062 H         1 MOL     0.1442
     18 H162       67.4212   51.5696   14.3164 H         1 MOL     0.1442
@<TRIPOS>BOND
     1    2    1 ar
     2    1    7 ar
     3    1   12 ar
     4    3    2 ar
     5    2    9 ar
     6   14    3 ar
     7    4    5 1 
     8    4    6 2 
     9    4   14 1 
    10    5   15 2 
    11    6   16 1 
    12    7    8 ar
    13    8   10 ar
    14    8   11 1 
    15    9   10 ar
    16   12   13 ar
    17   13   14 ar
    18   15   16 1 
    19   17   11 1 
    20   18   11 1 
@<TRIPOS>SUBSTRUCTURE
1 MOL         1
@<TRIPOS>MOLECULE
query molecule
   18    20     1     0     0
SMALL
NO_CHARGE

@<TRIPOS>ATOM
      1 C4         69.6013   50.8730   12.3016 C.ar      1 MOL     0.0725
      2 C5         69.0805   50.7378   11.0123 C.ar      1 MOL     0.0009
      3 C6         69.9356   50.4600    9.9455 C.ar      1 MOL     0.0187
      4 C7         72.1857   50.0400    9.0896 C.2       1 MOL    -0.0112
      5 C8         71.7374   49.9999    7.8023 C.2       1 MOL     0.0163
      6 C10        73.5082   49.8187    9.2014 C.2       1 MOL     0.0538
      7 N12        68.7928   51.1211   13.3447 N.ar      1 MOL    -0.2334
      8 C13        67.4585   51.2516   13.1852 C.ar      1 MOL     0.1153
      9 C15        67.7066   50.8718   10.8104 C.ar      1 MOL     0.0138
     10 C14        66.8838   51.1339   11.9128 C.ar      1 MOL     0.0445
     11 N16        66.6913   51.5150   14.2429 N.pl3     1 MOL    -0.3432
     12 C3         70.9719   50.7278   12.5116 C.ar      1 MOL     0.0295
     13 C2         71.8290   50.4565   11.4422 C.ar      1 MOL     0.0108
     14 C1         71.3200   50.3349   10.1484 C.ar      1 MOL    -0.0171
     15 C11        72.6189   49.7308    6.8265 C.2       1 MOL     0.0459
     16 S9         74.0824   49.5469    7.6170 S.3       1 MOL    -0.1054
     17 H161       66.9182   52.2886   14.8512 H         1 MOL     0.1442
     18 H162       65.8831   50.9410   14.4360 H         1 MOL     0.1442
@<TRIPOS>BOND
     1    2    1 ar
     2    1    7 ar
     3    1   12 ar
     4    3    2 ar
     5    2    9 ar
     6   14    3 ar
     7    4    5 1 
     8    4    6 2 
     9    4   14 1 
    10    5   15 2 
    11    6   16 1 
    12    7    8 ar
    13    8   10 ar
    14    8   11 1 
    15    9   10 ar
    16   12   13 ar
    17   13   14 ar
    18   15   16 1 
    19   17   11 1 
    20   18   11 1 
@<TRIPOS>SUBSTRUCTURE
1 MOL         1
@<TRIPOS>MOLECULE
query molecule
   18    20     1     0     0
SMALL
NO_CHARGE

@<TRIPOS>ATOM
      1 C4         63.1402   47.7810   16.5491 C.ar      1 MOL     0.0725
      2 C5         62.0845   47.6178   15.6486 C.ar      1 MOL     0.0009
      3 C6         62.2637   47.9461   14.3045 C.ar      1 MOL     0.0187
      4 C7         63.6859   48.7771   12.4994 C.2       1 MOL    -0.0112
      5 C8         63.9571   47.8079   11.5792 C.2       1 MOL     0.0163
      6 C10        63.5895   50.0083   11.9652 C.2       1 MOL     0.0538
      7 N12        62.9942   47.4527   17.8430 N.ar      1 MOL    -0.2334
      8 C13        61.8297   46.9605   18.3169 C.ar      1 MOL     0.1153
      9 C15        60.8653   47.1167   16.1053 C.ar      1 MOL     0.0138
     10 C14        60.7357   46.7845   17.4595 C.ar      1 MOL     0.0445
     11 N16        61.7187   46.6627   19.6113 N.pl3     1 MOL    -0.3432
     12 C3         64.3649   48.2697   16.0963 C.ar      1 MOL     0.0295
     13 C2         64.5421   48.6050   14.7517 C.ar      1 MOL     0.0108
     14 C1         63.4887   48.4598   13.8477 C.ar      1 MOL    -0.0171
     15 C11        64.1173   48.1708   10.2968 C.2       1 MOL     0.0459
     16 S9         63.8837   49.8279   10.2935 S.3       1 MOL    -0.1054
     17 H161       61.9707   47.3468   20.3104 H         1 MOL     0.1442
     18 H162       61.3825   45.7530   19.8932 H         1 MOL     0.1442
@<TRIPOS>BOND
     1    2    1 ar
     2    1    7 ar
     3    1   12 ar
     4    3    2 ar
     5    2    9 ar
     6   14    3 ar
     7    4    5 1 
     8    4    6 2 
     9    4   14 1 
    10    5   15 2 
    11    6   16 1 
    12    7    8 ar
    13    8   10 ar
    14    8   11 1 
    15    9   10 ar
    16   12   13 ar
    17   13   14 ar
    18   15   16 1 
    19   17   11 1 
    20   18   11 1 
@<TRIPOS>SUBSTRUCTURE
1 MOL         1
@<TRIPOS>MOLECULE
query molecule
   18    20     1     0     0
SMALL
NO_CHARGE

@<TRIPOS>ATOM
      1 C4         70.2496   50.3361   11.3819 C.ar      1 MOL     0.0725
      2 C5         69.5900   49.6116   10.3860 C.ar      1 MOL     0.0009
      3 C6         68.2055   49.7205   10.2521 C.ar      1 MOL     0.0187
      4 C7         66.0753   50.6658   10.9868 C.2       1 MOL    -0.0112
      5 C8         65.5169   51.8224   10.5282 C.2       1 MOL     0.0163
      6 C10        65.1727   49.6992   11.2351 C.2       1 MOL     0.0538
      7 N12        71.5836   50.2601   11.5150 N.ar      1 MOL    -0.2334
      8 C13        72.3289   49.4837   10.6997 C.ar      1 MOL     0.1153
      9 C15        70.3286   48.7951    9.5292 C.ar      1 MOL     0.0138
     10 C14        71.7182   48.7292    9.6893 C.ar      1 MOL     0.0445
     11 N16        73.6488   49.4214   10.8747 N.pl3     1 MOL    -0.3432
     12 C3         69.5184   51.1634   12.2332 C.ar      1 MOL     0.0295
     13 C2         68.1312   51.2671   12.1035 C.ar      1 MOL     0.0108
     14 C1         67.4617   50.5354   11.1215 C.ar      1 MOL    -0.0171
     15 C11        64.1819   51.8815   10.4017 C.2       1 MOL     0.0459
     16 S9         63.6443   50.3695   10.8766 S.3       1 MOL    -0.1054
     17 H161       74.0279   49.2121   11.7872 H         1 MOL     0.1442
     18 H162       74.2698   49.5835   10.0949 H         1 MOL     0.1442
@<TRIPOS>BOND
     1    2    1 ar
     2    1    7 ar
     3    1   12 ar
     4    3    2 ar
     5    2    9 ar
     6   14    3 ar
     7    4    5 1 
     8    4    6 2 
     9    4   14 1 
    10    5   15 2 
    11    6   16 1 
    12    7    8 ar
    13    8   10 ar
    14    8   11 1 
    15    9   10 ar
    16   12   13 ar
    17   13   14 ar
    18   15   16 1 
    19   17   11 1 
    20   18   11 1 
@<TRIPOS>SUBSTRUCTURE
1 MOL         1
@<TRIPOS>MOLECULE
query molecule
   18    20     1     0     0
SMALL
NO_CHARGE

@<TRIPOS>ATOM
      1 C4         72.9601   49.4996    9.6492 C.ar      1 MOL     0.0725
      2 C5         73.2486   48.7470   10.7904 C.ar      1 MOL     0.0009
      3 C6         74.3513   47.8923   10.7960 C.ar      1 MOL     0.0187
      4 C7         76.2833   46.9215    9.6574 C.2       1 MOL    -0.0112
      5 C8         76.2904   45.7588    8.9447 C.2       1 MOL     0.0163
      6 C10        77.4459   47.1679   10.2883 C.2       1 MOL     0.0538
      7 N12        71.9149   50.3424    9.6303 N.ar      1 MOL    -0.2334
      8 C13        71.1095   50.4886   10.7039 C.ar      1 MOL     0.1153
      9 C15        72.4338   48.8694   11.9162 C.ar      1 MOL     0.0138
     10 C14        71.3476   49.7521   11.8717 C.ar      1 MOL     0.0445
     11 N16        70.0716   51.3225   10.6400 N.pl3     1 MOL    -0.3432
     12 C3         73.7779   49.3909    8.5253 C.ar      1 MOL     0.0295
     13 C2         74.8781   48.5298    8.5286 C.ar      1 MOL     0.0108
     14 C1         75.1652   47.7626    9.6585 C.ar      1 MOL    -0.0171
     15 C11        77.3991   45.0025    8.9664 C.2       1 MOL     0.0459
     16 S9         78.4715   45.8509    9.9311 S.3       1 MOL    -0.1054
     17 H161       70.2041   52.3081   10.8163 H         1 MOL     0.1442
     18 H162       69.1527   50.9688   10.4153 H         1 MOL     0.1442
@<TRIPOS>BOND
     1    2    1 ar
     2    1    7 ar
     3    1   12 ar
     4    3    2 ar
     5    2    9 ar
     6   14    3 ar
     7    4    5 1 
     8    4    6 2 
     9    4   14 1 
    10    5   15 2 
    11    6   16 1 
    12    7    8 ar
    13    8   10 ar
    14    8   11 1 
    15    9   10 ar
    16   12   13 ar
    17   13   14 ar
    18   15   16 1 
    19   17   11 1 
    20   18   11 1 
@<TRIPOS>SUBSTRUCTURE
1 MOL         1
@<TRIPOS>MOLECULE
query molecule
   18    20     1     0     0
SMALL
NO_CHARGE

@<TRIPOS>ATOM
      1 C4         71.1028   42.2535    8.1692 C.ar      1 MOL     0.0725
      2 C5         70.1002   41.3814    8.6009 C.ar      1 MOL     0.0009
      3 C6         68.7617   41.7625    8.5036 C.ar      1 MOL     0.0187
      4 C7         67.0698   43.4107    7.8770 C.2       1 MOL    -0.0112
      5 C8         66.4309   44.0591    8.8924 C.2       1 MOL     0.0163
      6 C10        66.3020   43.2419    6.7850 C.2       1 MOL     0.0538
      7 N12        72.3959   41.8979    8.2364 N.ar      1 MOL    -0.2334
      8 C13        72.7707   40.6958    8.7234 C.ar      1 MOL     0.1153
      9 C15        70.4521   40.1331    9.1148 C.ar      1 MOL     0.0138
     10 C14        71.8072   39.7858    9.1781 C.ar      1 MOL     0.0445
     11 N16        74.0655   40.3866    8.7899 N.pl3     1 MOL    -0.3432
     12 C3         70.7568   43.4974    7.6433 C.ar      1 MOL     0.0295
     13 C2         69.4167   43.8818    7.5523 C.ar      1 MOL     0.0108
     14 C1         68.4091   43.0236    7.9951 C.ar      1 MOL    -0.0171
     15 C11        65.1513   44.4230    8.7136 C.2       1 MOL     0.0459
     16 S9         64.7814   43.9204    7.1609 S.3       1 MOL    -0.1054
     17 H161       74.5387   40.0166    7.9779 H         1 MOL     0.1442
     18 H162       74.5735   40.5222    9.6523 H         1 MOL     0.1442
@<TRIPOS>BOND
     1    2    1 ar
     2    1    7 ar
     3    1   12 ar
     4    3    2 ar
     5    2    9 ar
     6   14    3 ar
     7    4    5 1 
     8    4    6 2 
     9    4   14 1 
    10    5   15 2 
    11    6   16 1 
    12    7    8 ar
    13    8   10 ar
    14    8   11 1 
    15    9   10 ar
    16   12   13 ar
    17   13   14 ar
    18   15   16 1 
    19   17   11 1 
    20   18   11 1 
@<TRIPOS>SUBSTRUCTURE
1 MOL         1
@<TRIPOS>MOLECULE
query molecule
   18    20     1     0     0
SMALL
NO_CHARGE

@<TRIPOS>ATOM
      1 C4         76.6193   44.4382   10.2201 C.ar      1 MOL     0.0725
      2 C5         76.8378   43.0875    9.9377 C.ar      1 MOL     0.0009
      3 C6         76.4441   42.5652    8.7053 C.ar      1 MOL     0.0187
      4 C7         75.4258   42.8692    6.5048 C.2       1 MOL    -0.0112
      5 C8         74.1375   42.4927    6.2638 C.2       1 MOL     0.0163
      6 C10        76.2286   42.7415    5.4326 C.2       1 MOL     0.0538
      7 N12        77.0083   44.9648   11.3926 N.ar      1 MOL    -0.2334
      8 C13        77.6162   44.2125   12.3345 C.ar      1 MOL     0.1153
      9 C15        77.4587   42.2797   10.8906 C.ar      1 MOL     0.0138
     10 C14        77.8524   42.8502   12.1073 C.ar      1 MOL     0.0445
     11 N16        77.9719   44.7679   13.4928 N.pl3     1 MOL    -0.3432
     12 C3         76.0105   45.2535    9.2670 C.ar      1 MOL     0.0295
     13 C2         75.6100   44.7288    8.0357 C.ar      1 MOL     0.0108
     14 C1         75.8102   43.3773    7.7504 C.ar      1 MOL    -0.0171
     15 C11        73.8241   42.0307    5.0431 C.2       1 MOL     0.0459
     16 S9         75.2550   42.1131    4.1792 S.3       1 MOL    -0.1054
     17 H161       78.8474   45.2661   13.5662 H         1 MOL     0.1442
     18 H162       77.3658   44.6908   14.2970 H         1 MOL     0.1442
@<TRIPOS>BOND
     1    2    1 ar
     2    1    7 ar
     3    1   12 ar
     4    3    2 ar
     5    2    9 ar
     6   14    3 ar
     7    4    5 1 
     8    4    6 2 
     9    4   14 1 
    10    5   15 2 
    11    6   16 1 
    12    7    8 ar
    13    8   10 ar
    14    8   11 1 
    15    9   10 ar
    16   12   13 ar
    17   13   14 ar
    18   15   16 1 
    19   17   11 1 
    20   18   11 1 
@<TRIPOS>SUBSTRUCTURE
1 MOL         1
@<TRIPOS>MOLECULE
query molecule
   18    20     1     0     0
SMALL
NO_CHARGE

@<TRIPOS>ATOM
      1 C4         64.4490   47.3324    7.9113 C.ar      1 MOL     0.0725
      2 C5         65.4381   46.7105    8.6774 C.ar      1 MOL     0.0009
      3 C6         66.7404   47.2108    8.6651 C.ar      1 MOL     0.0187
      4 C7         68.3739   48.8433    7.8661 C.2       1 MOL    -0.0112
      5 C8         69.1691   48.7389    6.7632 C.2       1 MOL     0.0163
      6 C10        68.9499   49.5187    8.8773 C.2       1 MOL     0.0538
      7 N12        63.1854   46.8782    7.9244 N.ar      1 MOL    -0.2334
      8 C13        62.8293   45.8101    8.6696 C.ar      1 MOL     0.1153
      9 C15        65.1063   45.6009    9.4552 C.ar      1 MOL     0.0138
     10 C14        63.7829   45.1433    9.4501 C.ar      1 MOL     0.0445
     11 N16        61.5685   45.3788    8.6424 N.pl3     1 MOL    -0.3432
     12 C3         64.7717   48.4491    7.1416 C.ar      1 MOL     0.0295
     13 C2         66.0773   48.9459    7.1240 C.ar      1 MOL     0.0108
     14 C1         67.0755   48.3222    7.8740 C.ar      1 MOL    -0.0171
     15 C11        70.3986   49.2754    6.8083 C.2       1 MOL     0.0459
     16 S9         70.5077   49.9561    8.3332 S.3       1 MOL    -0.1054
     17 H161       60.9980   45.4334    9.4742 H         1 MOL     0.1442
     18 H162       61.1834   44.9975    7.7902 H         1 MOL     0.1442
@<TRIPOS>BOND
     1    2    1 ar
     2    1    7 ar
     3    1   12 ar
     4    3    2 ar
     5    2    9 ar
     6   14    3 ar
     7    4    5 1 
     8    4    6 2 
     9    4   14 1 
    10    5   15 2 
    11    6   16 1 
    12    7    8 ar
    13    8   10 ar
    14    8   11 1 
    15    9   10 ar
    16   12   13 ar
    17   13   14 ar
    18   15   16 1 
    19   17   11 1 
    20   18   11 1 
@<TRIPOS>SUBSTRUCTURE
1 MOL         1
@<TRIPOS>MOLECULE
query molecule
   18    20     1     0     0
SMALL
NO_CHARGE

@<TRIPOS>ATOM
      1 C4         68.4095   48.9673    7.3232 C.ar      1 MOL     0.0725
      2 C5         68.9614   47.7546    7.7439 C.ar      1 MOL     0.0009
      3 C6         70.3216   47.6802    8.0451 C.ar      1 MOL     0.0187
      4 C7         72.5118   48.7489    8.2252 C.2       1 MOL    -0.0112
      5 C8         72.9480   48.9265    9.5049 C.2       1 MOL     0.0163
      6 C10        73.5027   48.4772    7.3564 C.2       1 MOL     0.0538
      7 N12        67.0990   49.0646    7.0471 N.ar      1 MOL    -0.2334
      8 C13        66.2750   48.0013    7.1616 C.ar      1 MOL     0.1153
      9 C15        68.1397   46.6340    7.8680 C.ar      1 MOL     0.0138
     10 C14        66.7769   46.7589    7.5713 C.ar      1 MOL     0.0445
     11 N16        64.9831   48.1337    6.8617 N.pl3     1 MOL    -0.3432
     12 C3         69.2231   50.0937    7.2092 C.ar      1 MOL     0.0295
     13 C2         70.5865   50.0173    7.5041 C.ar      1 MOL     0.0108
     14 C1         71.1498   48.8067    7.9103 C.ar      1 MOL    -0.0171
     15 C11        74.2651   48.8404    9.7492 C.2       1 MOL     0.0459
     16 S9         74.9497   48.4945    8.2619 S.3       1 MOL    -0.1054
     17 H161       64.2841   48.0340    7.5839 H         1 MOL     0.1442
     18 H162       64.7030   48.3339    5.9122 H         1 MOL     0.1442
@<TRIPOS>BOND
     1    2    1 ar
     2    1    7 ar
     3    1   12 ar
     4    3    2 ar
     5    2    9 ar
     6   14    3 ar
     7    4    5 1 
     8    4    6 2 
     9    4   14 1 
    10    5   15 2 
    11    6   16 1 
    12    7    8 ar
    13    8   10 ar
    14    8   11 1 
    15    9   10 ar
    16   12   13 ar
    17   13   14 ar
    18   15   16 1 
    19   17   11 1 
    20   18   11 1 
@<TRIPOS>SUBSTRUCTURE
1 MOL         1
@<TRIPOS>MOLECULE
query molecule
   18    20     1     0     0
SMALL
NO_CHARGE

@<TRIPOS>ATOM
      1 C4         64.2928   47.1431   14.7463 C.ar      1 MOL     0.0725
      2 C5         63.8121   48.2106   15.5086 C.ar      1 MOL     0.0009
      3 C6         64.1358   48.2956   16.8630 C.ar      1 MOL     0.0187
      4 C7         65.2688   47.3905   18.8299 C.2       1 MOL    -0.0112
      5 C8         65.8935   48.4937   19.3322 C.2       1 MOL     0.0163
      6 C10        64.9972   46.4598   19.7629 C.2       1 MOL     0.0538
      7 N12        64.0087   47.0533   13.4369 N.ar      1 MOL    -0.2334
      8 C13        63.2511   47.9824   12.8161 C.ar      1 MOL     0.1153
      9 C15        63.0216   49.1861   14.9003 C.ar      1 MOL     0.0138
     10 C14        62.7359   49.0695   13.5344 C.ar      1 MOL     0.0445
     11 N16        62.9768   47.8489   11.5186 N.pl3     1 MOL    -0.3432
     12 C3         65.0935   46.1718   15.3456 C.ar      1 MOL     0.0295
     13 C2         65.4118   46.2532   16.7035 C.ar      1 MOL     0.0108
     14 C1         64.9236   47.3077   17.4766 C.ar      1 MOL    -0.0171
     15 C11        66.1822   48.5238   20.6427 C.2       1 MOL     0.0459
     16 S9         65.5978   47.0733   21.2384 S.3       1 MOL    -0.1054
     17 H161       63.3351   48.5207   10.8549 H         1 MOL     0.1442
     18 H162       62.4107   47.0760   11.1989 H         1 MOL     0.1442
@<TRIPOS>BOND
     1    2    1 ar
     2    1    7 ar
     3    1   12 ar
     4    3    2 ar
     5    2    9 ar
     6   14    3 ar
     7    4    5 1 
     8    4    6 2 
     9    4   14 1 
    10    5   15 2 
    11    6   16 1 
    12    7    8 ar
    13    8   10 ar
    14    8   11 1 
    15    9   10 ar
    16   12   13 ar
    17   13   14 ar
    18   15   16 1 
    19   17   11 1 
    20   18   11 1 
@<TRIPOS>SUBSTRUCTURE
1 MOL         1
@<TRIPOS>MOLECULE
query molecule
   18    20     1     0     0
SMALL
NO_CHARGE

@<TRIPOS>ATOM
      1 C4         67.1262   46.6803    7.9756 C.ar      1 MOL     0.0725
      2 C5         67.7108   47.8755    8.4019 C.ar      1 MOL     0.0009
      3 C6         66.9406   48.8192    9.0822 C.ar      1 MOL     0.0187
      4 C7         64.7973   49.5226   10.0219 C.2       1 MOL    -0.0112
      5 C8         64.0549   49.1528   11.1044 C.2       1 MOL     0.0163
      6 C10        64.7269   50.8388    9.7510 C.2       1 MOL     0.0538
      7 N12        67.8548   45.7509    7.3364 N.ar      1 MOL    -0.2334
      8 C13        69.1672   45.9386    7.0814 C.ar      1 MOL     0.1153
      9 C15        69.0637   48.1048    8.1503 C.ar      1 MOL     0.0138
     10 C14        69.8023   47.1225    7.4791 C.ar      1 MOL     0.0445
     11 N16        69.8524   44.9997    6.4291 N.pl3     1 MOL    -0.3432
     12 C3         65.7776   46.4401    8.2350 C.ar      1 MOL     0.0295
     13 C2         65.0047   47.3881    8.9101 C.ar      1 MOL     0.0108
     14 C1         65.5761   48.5915    9.3263 C.ar      1 MOL    -0.0171
     15 C11        63.3429   50.0944   11.7432 C.2       1 MOL     0.0459
     16 S9         63.6737   51.5102   10.9145 S.3       1 MOL    -0.1054
     17 H161       70.1381   45.1556    5.4729 H         1 MOL     0.1442
     18 H162       70.0858   44.1323    6.8908 H         1 MOL     0.1442
@<TRIPOS>BOND
     1    2    1 ar
     2    1    7 ar
     3    1   12 ar
     4    3    2 ar
     5    2    9 ar
     6   14    3 ar
     7    4    5 1 
     8    4    6 2 
     9    4   14 1 
    10    5   15 2 
    11    6   16 1 
    12    7    8 ar
    13    8   10 ar
    14    8   11 1 
    15    9   10 ar
    16   12   13 ar
    17   13   14 ar
    18   15   16 1 
    19   17   11 1 
    20   18   11 1 
@<TRIPOS>SUBSTRUCTURE
1 MOL         1
@<TRIPOS>MOLECULE
query molecule
   18    20     1     0     0
SMALL
NO_CHARGE

@<TRIPOS>ATOM
      1 C4         69.5941   49.7542    8.8829 C.ar      1 MOL     0.0725
      2 C5         70.8386   49.5012    9.4652 C.ar      1 MOL     0.0009
      3 C6         71.8886   49.0286    8.6773 C.ar      1 MOL     0.0187
      4 C7         72.7537   48.3254    6.5028 C.2       1 MOL    -0.0112
      5 C8         72.8735   48.7242    5.2042 C.2       1 MOL     0.0163
      6 C10        73.7492   47.5149    6.9061 C.2       1 MOL     0.0538
      7 N12        68.5763   50.2277    9.6199 N.ar      1 MOL    -0.2334
      8 C13        68.7172   50.4705   10.9404 C.ar      1 MOL     0.1153
      9 C15        71.0179   49.7359   10.8286 C.ar      1 MOL     0.0138
     10 C14        69.9411   50.2264   11.5774 C.ar      1 MOL     0.0445
     11 N16        67.6782   50.9239   11.6414 N.pl3     1 MOL    -0.3432
     12 C3         69.4123   49.5334    7.5184 C.ar      1 MOL     0.0295
     13 C2         70.4618   49.0536    6.7309 C.ar      1 MOL     0.0108
     14 C1         71.7042   48.7834    7.3066 C.ar      1 MOL    -0.0171
     15 C11        73.9125   48.2666    4.4881 C.2       1 MOL     0.0459
     16 S9         74.7700   47.3031    5.5544 S.3       1 MOL    -0.1054
     17 H161       67.2054   50.3155   12.2945 H         1 MOL     0.1442
     18 H162       67.3635   51.8758   11.5196 H         1 MOL     0.1442
@<TRIPOS>BOND
     1    2    1 ar
     2    1    7 ar
     3    1   12 ar
     4    3    2 ar
     5    2    9 ar
     6   14    3 ar
     7    4    5 1 
     8    4    6 2 
     9    4   14 1 
    10    5   15 2 
    11    6   16 1 
    12    7    8 ar
    13    8   10 ar
    14    8   11 1 
    15    9   10 ar
    16   12   13 ar
    17   13   14 ar
    18   15   16 1 
    19   17   11 1 
    20   18   11 1 
@<TRIPOS>SUBSTRUCTURE
1 MOL         1
@<TRIPOS>MOLECULE
query molecule
   18    20     1     0     0
SMALL
NO_CHARGE

@<TRIPOS>ATOM
      1 C4         65.3280   47.6057   18.3989 C.ar      1 MOL     0.0725
      2 C5         65.3303   48.4242   19.5311 C.ar      1 MOL     0.0009
      3 C6         64.7287   49.6819   19.4777 C.ar      1 MOL     0.0187
      4 C7         63.5164   51.3976   18.2295 C.2       1 MOL    -0.0112
      5 C8         62.2817   51.5460   17.6698 C.2       1 MOL     0.0163
      6 C10        64.0151   52.5416   18.7327 C.2       1 MOL     0.0538
      7 N12        65.8846   46.3842   18.4352 N.ar      1 MOL    -0.2334
      8 C13        66.4653   45.9088   19.5575 C.ar      1 MOL     0.1153
      9 C15        65.9265   47.9667   20.7065 C.ar      1 MOL     0.0138
     10 C14        66.5035   46.6909   20.7194 C.ar      1 MOL     0.0445
     11 N16        67.0224   44.6979   19.5488 N.pl3     1 MOL    -0.3432
     12 C3         64.7229   48.0523   17.2249 C.ar      1 MOL     0.0295
     13 C2         64.1266   49.3145   17.1695 C.ar      1 MOL     0.0108
     14 C1         64.1373   50.1454   18.2909 C.ar      1 MOL    -0.0171
     15 C11        61.7281   52.7687   17.6573 C.2       1 MOL     0.0459
     16 S9         62.8490   53.7486   18.4215 S.3       1 MOL    -0.1054
     17 H161       68.0280   44.6045   19.5664 H         1 MOL     0.1442
     18 H162       66.4391   43.8738   19.5246 H         1 MOL     0.1442
@<TRIPOS>BOND
     1    2    1 ar
     2    1    7 ar
     3    1   12 ar
     4    3    2 ar
     5    2    9 ar
     6   14    3 ar
     7    4    5 1 
     8    4    6 2 
     9    4   14 1 
    10    5   15 2 
    11    6   16 1 
    12    7    8 ar
    13    8   10 ar
    14    8   11 1 
    15    9   10 ar
    16   12   13 ar
    17   13   14 ar
    18   15   16 1 
    19   17   11 1 
    20   18   11 1 
@<TRIPOS>SUBSTRUCTURE
1 MOL         1
@<TRIPOS>MOLECULE
query molecule
   18    20     1     0     0
SMALL
NO_CHARGE

@<TRIPOS>ATOM
      1 C4         71.4652   49.3666    9.2838 C.ar      1 MOL     0.0725
      2 C5         71.6214   50.6424    8.7364 C.ar      1 MOL     0.0009
      3 C6         70.7074   51.6481    9.0521 C.ar      1 MOL     0.0187
      4 C7         68.7036   52.3924   10.2363 C.2       1 MOL    -0.0112
      5 C8         67.7160   52.1696   11.1499 C.2       1 MOL     0.0163
      6 C10        68.7163   53.6509    9.7604 C.2       1 MOL     0.0538
      7 N12        72.3448   48.3902    9.0079 N.ar      1 MOL    -0.2334
      8 C13        73.4012   48.6040    8.1948 C.ar      1 MOL     0.1153
      9 C15        72.6989   50.8970    7.8876 C.ar      1 MOL     0.0138
     10 C14        73.6012   49.8622    7.6118 C.ar      1 MOL     0.0445
     11 N16        74.2426   47.6044    7.9313 N.pl3     1 MOL    -0.3432
     12 C3         70.3974   49.1094   10.1425 C.ar      1 MOL     0.0295
     13 C2         69.4783   50.1146   10.4531 C.ar      1 MOL     0.0108
     14 C1         69.6173   51.3880    9.8990 C.ar      1 MOL    -0.0171
     15 C11        66.8809   53.1776   11.4474 C.2       1 MOL     0.0459
     16 S9         67.4196   54.4615   10.5190 S.3       1 MOL    -0.1054
     17 H161       73.8833   46.6974    7.6696 H         1 MOL     0.1442
     18 H162       75.2395   47.7538    7.9934 H         1 MOL     0.1442
@<TRIPOS>BOND
     1    2    1 ar
     2    1    7 ar
     3    1   12 ar
     4    3    2 ar
     5    2    9 ar
     6   14    3 ar
     7    4    5 1 
     8    4    6 2 
     9    4   14 1 
    10    5   15 2 
    11    6   16 1 
    12    7    8 ar
    13    8   10 ar
    14    8   11 1 
    15    9   10 ar
    16   12   13 ar
    17   13   14 ar
    18   15   16 1 
    19   17   11 1 
    20   18   11 1 
@<TRIPOS>SUBSTRUCTURE
1 MOL         1
@<TRIPOS>MOLECULE
query molecule
   18    20     1     0     0
SMALL
NO_CHARGE

@<TRIPOS>ATOM
      1 C4         68.6303   48.7323    7.0370 C.ar      1 MOL     0.0725
      2 C5         69.0818   47.7027    7.8664 C.ar      1 MOL     0.0009
      3 C6         70.4389   47.6072    8.1758 C.ar      1 MOL     0.0187
      4 C7         72.7234   48.4477    7.9616 C.2       1 MOL    -0.0112
      5 C8         73.5583   47.6055    7.2883 C.2       1 MOL     0.0163
      6 C10        73.3518   49.1937    8.8885 C.2       1 MOL     0.0538
      7 N12        67.3256   48.8532    6.7429 N.ar      1 MOL    -0.2334
      8 C13        66.4113   47.9883    7.2315 C.ar      1 MOL     0.1153
      9 C15        68.1648   46.7880    8.3846 C.ar      1 MOL     0.0138
     10 C14        66.8100   46.9321    8.0613 C.ar      1 MOL     0.0445
     11 N16        65.1276   48.1314    6.9025 N.pl3     1 MOL    -0.3432
     12 C3         69.5402   49.6569    6.5261 C.ar      1 MOL     0.0295
     13 C2         70.9000   49.5571    6.8302 C.ar      1 MOL     0.0108
     14 C1         71.3626   48.5231    7.6456 C.ar      1 MOL    -0.0171
     15 C11        74.8581   47.5911    7.6230 C.2       1 MOL     0.0459
     16 S9         74.9942   48.7310    8.8407 S.3       1 MOL    -0.1054
     17 H161       64.8668   48.2792    5.9379 H         1 MOL     0.1442
     18 H162       64.4155   48.0920    7.6177 H         1 MOL     0.1442
@<TRIPOS>BOND
     1    2    1 ar
     2    1    7 ar
     3    1   12 ar
     4    3    2 ar
     5    2    9 ar
     6   14    3 ar
     7    4    5 1 
     8    4    6 2 
     9    4   14 1 
    10    5   15 2 
    11    6   16 1 
    12    7    8 ar
    13    8   10 ar
    14    8   11 1 
    15    9   10 ar
    16   12   13 ar
    17   13   14 ar
    18   15   16 1 
    19   17   11 1 
    20   18   11 1 
@<TRIPOS>SUBSTRUCTURE
1 MOL         1
@<TRIPOS>MOLECULE
query molecule
   18    20     1     0     0
SMALL
NO_CHARGE

@<TRIPOS>ATOM
      1 C4         68.5828   48.5593    7.2415 C.ar      1 MOL     0.0725
      2 C5         68.6143   48.4139    8.6307 C.ar      1 MOL     0.0009
      3 C6         69.8388   48.4127    9.2994 C.ar      1 MOL     0.0187
      4 C7         72.2779   48.5521    9.2505 C.2       1 MOL    -0.0112
      5 C8         72.9869   47.4044    9.4501 C.2       1 MOL     0.0163
      6 C10        72.9054   49.6527    9.7039 C.2       1 MOL     0.0538
      7 N12        67.4138   48.5825    6.5812 N.ar      1 MOL    -0.2334
      8 C13        66.2363   48.4630    7.2309 C.ar      1 MOL     0.1153
      9 C15        67.4163   48.2826    9.3334 C.ar      1 MOL     0.0138
     10 C14        66.2098   48.3062    8.6230 C.ar      1 MOL     0.0445
     11 N16        65.0977   48.4733    6.5381 N.pl3     1 MOL    -0.3432
     12 C3         69.7761   48.7035    6.5350 C.ar      1 MOL     0.0295
     13 C2         71.0025   48.6953    7.2040 C.ar      1 MOL     0.0108
     14 C1         71.0448   48.5352    8.5898 C.ar      1 MOL    -0.0171
     15 C11        74.1731   47.4858   10.0731 C.2       1 MOL     0.0459
     16 S9         74.3754   49.1172   10.3867 S.3       1 MOL    -0.1054
     17 H161       65.0052   47.9022    5.7102 H         1 MOL     0.1442
     18 H162       64.3274   49.0521    6.8409 H         1 MOL     0.1442
@<TRIPOS>BOND
     1    2    1 ar
     2    1    7 ar
     3    1   12 ar
     4    3    2 ar
     5    2    9 ar
     6   14    3 ar
     7    4    5 1 
     8    4    6 2 
     9    4   14 1 
    10    5   15 2 
    11    6   16 1 
    12    7    8 ar
    13    8   10 ar
    14    8   11 1 
    15    9   10 ar
    16   12   13 ar
    17   13   14 ar
    18   15   16 1 
    19   17   11 1 
    20   18   11 1 
@<TRIPOS>SUBSTRUCTURE
1 MOL         1
@<TRIPOS>MOLECULE
query molecule
   18    20     1     0     0
SMALL
NO_CHARGE

@<TRIPOS>ATOM
      1 C4         63.4853   45.2778   15.2487 C.ar      1 MOL     0.0725
      2 C5         63.1102   45.5917   16.5574 C.ar      1 MOL     0.0009
      3 C6         63.3774   44.6914   17.5892 C.ar      1 MOL     0.0187
      4 C7         64.2898   42.5572   18.3537 C.2       1 MOL    -0.0112
      5 C8         63.8290   42.7605   19.6210 C.2       1 MOL     0.0163
      6 C10        64.9809   41.4112   18.2145 C.2       1 MOL     0.0538
      7 N12        63.2546   46.1390   14.2445 N.ar      1 MOL    -0.2334
      8 C13        62.6531   47.3281   14.4616 C.ar      1 MOL     0.1153
      9 C15        62.4816   46.8098   16.8169 C.ar      1 MOL     0.0138
     10 C14        62.2485   47.6902   15.7532 C.ar      1 MOL     0.0445
     11 N16        62.4259   48.1483   13.4359 N.pl3     1 MOL    -0.3432
     12 C3         64.1250   44.0675   14.9849 C.ar      1 MOL     0.0295
     13 C2         64.3862   43.1630   16.0172 C.ar      1 MOL     0.0108
     14 C1         64.0016   43.4610   17.3253 C.ar      1 MOL    -0.0171
     15 C11        64.1214   41.8486   20.5615 C.2       1 MOL     0.0459
     16 S9         65.0075   40.6793   19.7565 S.3       1 MOL    -0.1054
     17 H161       63.1724   48.7258   13.0761 H         1 MOL     0.1442
     18 H162       61.5074   48.1925   13.0183 H         1 MOL     0.1442
@<TRIPOS>BOND
     1    2    1 ar
     2    1    7 ar
     3    1   12 ar
     4    3    2 ar
     5    2    9 ar
     6   14    3 ar
     7    4    5 1 
     8    4    6 2 
     9    4   14 1 
    10    5   15 2 
    11    6   16 1 
    12    7    8 ar
    13    8   10 ar
    14    8   11 1 
    15    9   10 ar
    16   12   13 ar
    17   13   14 ar
    18   15   16 1 
    19   17   11 1 
    20   18   11 1 
@<TRIPOS>SUBSTRUCTURE
1 MOL         1
@<TRIPOS>MOLECULE
query molecule
   18    20     1     0     0
SMALL
NO_CHARGE

@<TRIPOS>ATOM
      1 C4         76.0826   43.9859    6.5509 C.ar      1 MOL     0.0725
      2 C5         77.4183   43.6771    6.8203 C.ar      1 MOL     0.0009
      3 C6         78.0770   44.3119    7.8737 C.ar      1 MOL     0.0187
      4 C7         78.0636   45.9069    9.7250 C.2       1 MOL    -0.0112
      5 C8         79.3291   45.5557   10.0923 C.2       1 MOL     0.0163
      6 C10        77.5579   46.9188   10.4536 C.2       1 MOL     0.0538
      7 N12        75.4250   43.3720    5.5540 N.ar      1 MOL    -0.2334
      8 C13        76.0277   42.4443    4.7800 C.ar      1 MOL     0.1153
      9 C15        78.0737   42.7269    6.0368 C.ar      1 MOL     0.0138
     10 C14        77.3684   42.1024    5.0007 C.ar      1 MOL     0.0445
     11 N16        75.3462   41.8697    3.7890 N.pl3     1 MOL    -0.3432
     12 C3         75.4186   44.9255    7.3382 C.ar      1 MOL     0.0295
     13 C2         76.0804   45.5663    8.3886 C.ar      1 MOL     0.0108
     14 C1         77.4190   45.2756    8.6557 C.ar      1 MOL    -0.0171
     15 C11        79.9033   46.2104   11.1138 C.2       1 MOL     0.0459
     16 S9         78.7596   47.3344   11.5925 S.3       1 MOL    -0.1054
     17 H161       74.7051   41.1151    3.9881 H         1 MOL     0.1442
     18 H162       75.4709   42.1889    2.8390 H         1 MOL     0.1442
@<TRIPOS>BOND
     1    2    1 ar
     2    1    7 ar
     3    1   12 ar
     4    3    2 ar
     5    2    9 ar
     6   14    3 ar
     7    4    5 1 
     8    4    6 2 
     9    4   14 1 
    10    5   15 2 
    11    6   16 1 
    12    7    8 ar
    13    8   10 ar
    14    8   11 1 
    15    9   10 ar
    16   12   13 ar
    17   13   14 ar
    18   15   16 1 
    19   17   11 1 
    20   18   11 1 
@<TRIPOS>SUBSTRUCTURE
1 MOL         1
@<TRIPOS>MOLECULE
query molecule
   18    20     1     0     0
SMALL
NO_CHARGE

@<TRIPOS>ATOM
      1 C4         67.8810   47.7800    7.1469 C.ar      1 MOL     0.0725
      2 C5         68.8869   46.8916    7.5351 C.ar      1 MOL     0.0009
      3 C6         70.2164   47.3144    7.5500 C.ar      1 MOL     0.0187
      4 C7         71.8873   49.0598    7.1851 C.2       1 MOL    -0.0112
      5 C8         72.8356   48.4904    6.3874 C.2       1 MOL     0.0163
      6 C10        72.3564   50.0792    7.9276 C.2       1 MOL     0.0538
      7 N12        66.5934   47.3987    7.1444 N.ar      1 MOL    -0.2334
      8 C13        66.2284   46.1514    7.5104 C.ar      1 MOL     0.1153
      9 C15        68.5458   45.5931    7.9144 C.ar      1 MOL     0.0138
     10 C14        67.1970   45.2172    7.9005 C.ar      1 MOL     0.0445
     11 N16        64.9416   45.8055    7.4779 N.pl3     1 MOL    -0.3432
     12 C3         68.2143   49.0827    6.7787 C.ar      1 MOL     0.0295
     13 C2         69.5464   49.5039    6.7870 C.ar      1 MOL     0.0108
     14 C1         70.5597   48.6190    7.1586 C.ar      1 MOL    -0.0171
     15 C11        74.0885   48.9688    6.4424 C.2       1 MOL     0.0459
     16 S9         74.0168   50.2162    7.5558 S.3       1 MOL    -0.1054
     17 H161       64.3261   46.0786    8.2307 H         1 MOL     0.1442
     18 H162       64.5819   45.2703    6.7006 H         1 MOL     0.1442
@<TRIPOS>BOND
     1    2    1 ar
     2    1    7 ar
     3    1   12 ar
     4    3    2 ar
     5    2    9 ar
     6   14    3 ar
     7    4    5 1 
     8    4    6 2 
     9    4   14 1 
    10    5   15 2 
    11    6   16 1 
    12    7    8 ar
    13    8   10 ar
    14    8   11 1 
    15    9   10 ar
    16   12   13 ar
    17   13   14 ar
    18   15   16 1 
    19   17   11 1 
    20   18   11 1 
@<TRIPOS>SUBSTRUCTURE
1 MOL         1
@<TRIPOS>MOLECULE
query molecule
   18    20     1     0     0
SMALL
NO_CHARGE

@<TRIPOS>ATOM
      1 C4         67.7354   53.1586   10.9579 C.ar      1 MOL     0.0725
      2 C5         68.4819   53.4592    9.8159 C.ar      1 MOL     0.0009
      3 C6         69.1241   52.4353    9.1189 C.ar      1 MOL     0.0187
      4 C7         69.6726   50.0677    8.8643 C.2       1 MOL    -0.0112
      5 C8         70.7638   49.4297    9.3761 C.2       1 MOL     0.0163
      6 C10        69.2661   49.5661    7.6838 C.2       1 MOL     0.0538
      7 N12        67.0938   54.1269   11.6317 N.ar      1 MOL    -0.2334
      8 C13        67.1501   55.4161   11.2348 C.ar      1 MOL     0.1153
      9 C15        68.5659   54.7819    9.3804 C.ar      1 MOL     0.0138
     10 C14        67.8913   55.7750   10.1012 C.ar      1 MOL     0.0445
     11 N16        66.5137   56.3509   11.9402 N.pl3     1 MOL    -0.3432
     12 C3         67.6374   51.8370   11.3909 C.ar      1 MOL     0.0295
     13 C2         68.2863   50.8127   10.6970 C.ar      1 MOL     0.0108
     14 C1         69.0468   51.1052    9.5639 C.ar      1 MOL    -0.0171
     15 C11        71.3096   48.4285    8.6680 C.2       1 MOL     0.0459
     16 S9         70.3511   48.3049    7.3017 S.3       1 MOL    -0.1054
     17 H161       66.5137   57.3100   11.6235 H         1 MOL     0.1442
     18 H162       66.0315   56.1003   12.7915 H         1 MOL     0.1442
@<TRIPOS>BOND
     1    2    1 ar
     2    1    7 ar
     3    1   12 ar
     4    3    2 ar
     5    2    9 ar
     6   14    3 ar
     7    4    5 1 
     8    4    6 2 
     9    4   14 1 
    10    5   15 2 
    11    6   16 1 
    12    7    8 ar
    13    8   10 ar
    14    8   11 1 
    15    9   10 ar
    16   12   13 ar
    17   13   14 ar
    18   15   16 1 
    19   17   11 1 
    20   18   11 1 
@<TRIPOS>SUBSTRUCTURE
1 MOL         1
@<TRIPOS>MOLECULE
query molecule
   18    20     1     0     0
SMALL
NO_CHARGE

@<TRIPOS>ATOM
      1 C4         77.1201   45.4999   10.0392 C.ar      1 MOL     0.0725
      2 C5         76.7840   44.2057    9.6343 C.ar      1 MOL     0.0009
      3 C6         75.9687   44.0191    8.5177 C.ar      1 MOL     0.0187
      4 C7         74.6580   44.9449    6.6748 C.2       1 MOL    -0.0112
      5 C8         73.3329   45.2667    6.6956 C.2       1 MOL     0.0163
      6 C10        75.0817   44.5061    5.4755 C.2       1 MOL     0.0538
      7 N12        77.9193   45.7004   11.0995 N.ar      1 MOL    -0.2334
      8 C13        78.4195   44.6664   11.8090 C.ar      1 MOL     0.1153
      9 C15        77.2791   43.1139   10.3479 C.ar      1 MOL     0.0138
     10 C14        78.1079   43.3478   11.4522 C.ar      1 MOL     0.0445
     11 N16        79.1953   44.9068   12.8659 N.pl3     1 MOL    -0.3432
     12 C3         76.6386   46.5947    9.3227 C.ar      1 MOL     0.0295
     13 C2         75.8164   46.4079    8.2087 C.ar      1 MOL     0.0108
     14 C1         75.4628   45.1193    7.8058 C.ar      1 MOL    -0.0171
     15 C11        72.6158   45.0958    5.5739 C.2       1 MOL     0.0459
     16 S9         73.7152   44.5175    4.4526 S.3       1 MOL    -0.1054
     17 H161       79.6098   44.1382   13.3734 H         1 MOL     0.1442
     18 H162       79.3687   45.8575   13.1593 H         1 MOL     0.1442
@<TRIPOS>BOND
     1    2    1 ar
     2    1    7 ar
     3    1   12 ar
     4    3    2 ar
     5    2    9 ar
     6   14    3 ar
     7    4    5 1 
     8    4    6 2 
     9    4   14 1 
    10    5   15 2 
    11    6   16 1 
    12    7    8 ar
    13    8   10 ar
    14    8   11 1 
    15    9   10 ar
    16   12   13 ar
    17   13   14 ar
    18   15   16 1 
    19   17   11 1 
    20   18   11 1 
@<TRIPOS>SUBSTRUCTURE
1 MOL         1
@<TRIPOS>MOLECULE
query molecule
   18    20     1     0     0
SMALL
NO_CHARGE

@<TRIPOS>ATOM
      1 C4         69.9609   41.8770    8.2066 C.ar      1 MOL     0.0725
      2 C5         71.2203   41.7490    8.7976 C.ar      1 MOL     0.0009
      3 C6         72.3434   41.5408    7.9964 C.ar      1 MOL     0.0187
      4 C7         73.3415   41.2448    5.7856 C.2       1 MOL    -0.0112
      5 C8         74.0363   42.3041    5.2806 C.2       1 MOL     0.0163
      6 C10        73.8719   40.0529    5.4563 C.2       1 MOL     0.0538
      7 N12        68.8703   42.0972    8.9585 N.ar      1 MOL    -0.2334
      8 C13        68.9509   42.1980   10.3024 C.ar      1 MOL     0.1153
      9 C15        71.3395   41.8427   10.1844 C.ar      1 MOL     0.0138
     10 C14        70.1877   42.0691   10.9480 C.ar      1 MOL     0.0445
     11 N16        67.8430   42.3996   11.0155 N.pl3     1 MOL    -0.3432
     12 C3         69.8371   41.7968    6.8203 C.ar      1 MOL     0.0295
     13 C2         70.9607   41.5813    6.0186 C.ar      1 MOL     0.0108
     14 C1         72.2209   41.4370    6.6009 C.ar      1 MOL    -0.0171
     15 C11        75.1147   42.0574    4.5205 C.2       1 MOL     0.0459
     16 S9         75.2348   40.3886    4.4848 S.3       1 MOL    -0.1054
     17 H161       67.9019   42.5217   12.0164 H         1 MOL     0.1442
     18 H162       66.9446   42.4303   10.5551 H         1 MOL     0.1442
@<TRIPOS>BOND
     1    2    1 ar
     2    1    7 ar
     3    1   12 ar
     4    3    2 ar
     5    2    9 ar
     6   14    3 ar
     7    4    5 1 
     8    4    6 2 
     9    4   14 1 
    10    5   15 2 
    11    6   16 1 
    12    7    8 ar
    13    8   10 ar
    14    8   11 1 
    15    9   10 ar
    16   12   13 ar
    17   13   14 ar
    18   15   16 1 
    19   17   11 1 
    20   18   11 1 
@<TRIPOS>SUBSTRUCTURE
1 MOL         1
@<TRIPOS>MOLECULE
query molecule
   18    20     1     0     0
SMALL
NO_CHARGE

@<TRIPOS>ATOM
      1 C4         62.9765   47.8269   16.9562 C.ar      1 MOL     0.0725
      2 C5         64.2089   48.4643   16.7925 C.ar      1 MOL     0.0009
      3 C6         64.3161   49.8354   17.0276 C.ar      1 MOL     0.0187
      4 C7         63.2915   51.9612   17.6621 C.2       1 MOL    -0.0112
      5 C8         62.2511   52.6536   18.2079 C.2       1 MOL     0.0163
      6 C10        64.3853   52.7170   17.4549 C.2       1 MOL     0.0538
      7 N12        62.8565   46.5049   16.7537 N.ar      1 MOL    -0.2334
      8 C13        63.9137   45.7510   16.3839 C.ar      1 MOL     0.1153
      9 C15        65.3213   47.7166   16.4058 C.ar      1 MOL     0.0138
     10 C14        65.1712   46.3401   16.1972 C.ar      1 MOL     0.0445
     11 N16        63.7505   44.4446   16.1757 N.pl3     1 MOL    -0.3432
     12 C3         61.8638   48.5666   17.3545 C.ar      1 MOL     0.0295
     13 C2         61.9698   49.9407   17.5831 C.ar      1 MOL     0.0108
     14 C1         63.1932   50.5890   17.4075 C.ar      1 MOL    -0.0171
     15 C11        62.4112   53.9645   18.4475 C.2       1 MOL     0.0459
     16 S9         63.9789   54.2948   17.9640 S.3       1 MOL    -0.1054
     17 H161       64.5566   43.8468   16.0617 H         1 MOL     0.1442
     18 H162       62.8208   44.0525   16.1319 H         1 MOL     0.1442
@<TRIPOS>BOND
     1    2    1 ar
     2    1    7 ar
     3    1   12 ar
     4    3    2 ar
     5    2    9 ar
     6   14    3 ar
     7    4    5 1 
     8    4    6 2 
     9    4   14 1 
    10    5   15 2 
    11    6   16 1 
    12    7    8 ar
    13    8   10 ar
    14    8   11 1 
    15    9   10 ar
    16   12   13 ar
    17   13   14 ar
    18   15   16 1 
    19   17   11 1 
    20   18   11 1 
@<TRIPOS>SUBSTRUCTURE
1 MOL         1
@<TRIPOS>MOLECULE
query molecule
   18    20     1     0     0
SMALL
NO_CHARGE

@<TRIPOS>ATOM
      1 C4         71.8999   49.7480   12.5448 C.ar      1 MOL     0.0725
      2 C5         71.1222   49.8914   11.3931 C.ar      1 MOL     0.0009
      3 C6         71.3259   49.0372   10.3090 C.ar      1 MOL     0.0187
      4 C7         72.5226   47.1722    9.2788 C.2       1 MOL    -0.0112
      5 C8         71.9696   45.9257    9.2692 C.2       1 MOL     0.0163
      6 C10        73.2128   47.4584    8.1597 C.2       1 MOL     0.0538
      7 N12        71.7063   50.5474   13.6063 N.ar      1 MOL    -0.2334
      8 C13        70.7632   51.5133   13.5969 C.ar      1 MOL     0.1153
      9 C15        70.1418   50.8830   11.3470 C.ar      1 MOL     0.0138
     10 C14        69.9607   51.7068   12.4648 C.ar      1 MOL     0.0445
     11 N16        70.6133   52.2980   14.6639 N.pl3     1 MOL    -0.3432
     12 C3         72.8727   48.7509   12.6016 C.ar      1 MOL     0.0295
     13 C2         73.0814   47.9000   11.5133 C.ar      1 MOL     0.0108
     14 C1         72.3198   48.0455   10.3528 C.ar      1 MOL    -0.0171
     15 C11        72.1831   45.1397    8.2023 C.2       1 MOL     0.0459
     16 S9         73.1175   46.0698    7.1716 S.3       1 MOL    -0.1054
     17 H161       69.8113   52.9081   14.7334 H         1 MOL     0.1442
     18 H162       71.3016   52.2826   15.4028 H         1 MOL     0.1442
@<TRIPOS>BOND
     1    2    1 ar
     2    1    7 ar
     3    1   12 ar
     4    3    2 ar
     5    2    9 ar
     6   14    3 ar
     7    4    5 1 
     8    4    6 2 
     9    4   14 1 
    10    5   15 2 
    11    6   16 1 
    12    7    8 ar
    13    8   10 ar
    14    8   11 1 
    15    9   10 ar
    16   12   13 ar
    17   13   14 ar
    18   15   16 1 
    19   17   11 1 
    20   18   11 1 
@<TRIPOS>SUBSTRUCTURE
1 MOL         1
@<TRIPOS>MOLECULE
query molecule
   18    20     1     0     0
SMALL
NO_CHARGE

@<TRIPOS>ATOM
      1 C4         65.3291   47.9463   20.4161 C.ar      1 MOL     0.0725
      2 C5         64.4269   46.9322   20.7472 C.ar      1 MOL     0.0009
      3 C6         63.0573   47.1981   20.7519 C.ar      1 MOL     0.0187
      4 C7         61.2019   48.7561   20.4328 C.2       1 MOL    -0.0112
      5 C8         60.6242   49.5158   21.4068 C.2       1 MOL     0.0163
      6 C10        60.3378   48.3645   19.4785 C.2       1 MOL     0.0538
      7 N12        66.6499   47.7057   20.3869 N.ar      1 MOL    -0.2334
      8 C13        67.1494   46.4856   20.6779 C.ar      1 MOL     0.1153
      9 C15        64.9089   45.6606   21.0586 C.ar      1 MOL     0.0138
     10 C14        66.2904   45.4345   21.0248 C.ar      1 MOL     0.0445
     11 N16        68.4678   46.2910   20.6548 N.pl3     1 MOL    -0.3432
     12 C3         64.8528   49.2158   20.0919 C.ar      1 MOL     0.0295
     13 C2         63.4817   49.4838   20.1034 C.ar      1 MOL     0.0108
     14 C1         62.5737   48.4814   20.4476 C.ar      1 MOL    -0.0171
     15 C11        59.3069   49.7618   21.3288 C.2       1 MOL     0.0459
     16 S9         58.8153   48.9935   19.9257 S.3       1 MOL    -0.1054
     17 H161       68.8409   45.3539   20.7075 H         1 MOL     0.1442
     18 H162       69.0937   47.0805   20.5846 H         1 MOL     0.1442
@<TRIPOS>BOND
     1    2    1 ar
     2    1    7 ar
     3    1   12 ar
     4    3    2 ar
     5    2    9 ar
     6   14    3 ar
     7    4    5 1 
     8    4    6 2 
     9    4   14 1 
    10    5   15 2 
    11    6   16 1 
    12    7    8 ar
    13    8   10 ar
    14    8   11 1 
    15    9   10 ar
    16   12   13 ar
    17   13   14 ar
    18   15   16 1 
    19   17   11 1 
    20   18   11 1 
@<TRIPOS>SUBSTRUCTURE
1 MOL         1
@<TRIPOS>MOLECULE
query molecule
   18    20     1     0     0
SMALL
NO_CHARGE

@<TRIPOS>ATOM
      1 C4         64.4524   47.6772    8.2895 C.ar      1 MOL     0.0725
      2 C5         64.8247   48.2323    9.5163 C.ar      1 MOL     0.0009
      3 C6         64.1334   47.8779   10.6752 C.ar      1 MOL     0.0187
      4 C7         62.3611   46.6077   11.7784 C.2       1 MOL    -0.0112
      5 C8         63.0282   46.2300   12.9063 C.2       1 MOL     0.0163
      6 C10        61.0239   46.6184   11.9276 C.2       1 MOL     0.0538
      7 N12        65.1172   47.9904    7.1656 N.ar      1 MOL    -0.2334
      8 C13        66.1587   48.8493    7.1805 C.ar      1 MOL     0.1153
      9 C15        65.8932   49.1279    9.5674 C.ar      1 MOL     0.0138
     10 C14        66.5691   49.4419    8.3820 C.ar      1 MOL     0.0445
     11 N16        66.7822   49.1484    6.0411 N.pl3     1 MOL    -0.3432
     12 C3         63.3933   46.7721    8.2339 C.ar      1 MOL     0.0295
     13 C2         62.6967   46.4226    9.3934 C.ar      1 MOL     0.0108
     14 C1         63.0515   46.9836   10.6211 C.ar      1 MOL    -0.0171
     15 C11        62.3119   45.8988   13.9921 C.2       1 MOL     0.0459
     16 S9         60.7179   46.1099   13.5282 S.3       1 MOL    -0.1054
     17 H161       66.2454   49.3663    5.2137 H         1 MOL     0.1442
     18 H162       67.7915   49.1572    6.0049 H         1 MOL     0.1442
@<TRIPOS>BOND
     1    2    1 ar
     2    1    7 ar
     3    1   12 ar
     4    3    2 ar
     5    2    9 ar
     6   14    3 ar
     7    4    5 1 
     8    4    6 2 
     9    4   14 1 
    10    5   15 2 
    11    6   16 1 
    12    7    8 ar
    13    8   10 ar
    14    8   11 1 
    15    9   10 ar
    16   12   13 ar
    17   13   14 ar
    18   15   16 1 
    19   17   11 1 
    20   18   11 1 
@<TRIPOS>SUBSTRUCTURE
1 MOL         1
@<TRIPOS>MOLECULE
query molecule
   18    20     1     0     0
SMALL
NO_CHARGE

@<TRIPOS>ATOM
      1 C4         63.7013   47.2669    7.2349 C.ar      1 MOL     0.0725
      2 C5         64.4005   46.4657    8.1411 C.ar      1 MOL     0.0009
      3 C6         65.7908   46.5560    8.2160 C.ar      1 MOL     0.0187
      4 C7         67.8927   47.5410    7.4524 C.2       1 MOL    -0.0112
      5 C8         68.6631   47.5488    6.3272 C.2       1 MOL     0.0163
      6 C10        68.6016   47.6948    8.5856 C.2       1 MOL     0.0538
      7 N12        62.3618   47.2091    7.1609 N.ar      1 MOL    -0.2334
      8 C13        61.6487   46.3782    7.9507 C.ar      1 MOL     0.1153
      9 C15        63.6956   45.5916    8.9689 C.ar      1 MOL     0.0138
     10 C14        62.2995   45.5462    8.8713 C.ar      1 MOL     0.0445
     11 N16        60.3215   46.3370    7.8351 N.pl3     1 MOL    -0.3432
     12 C3         64.3991   48.1514    6.4137 C.ar      1 MOL     0.0295
     13 C2         65.7918   48.2367    6.4839 C.ar      1 MOL     0.0108
     14 C1         66.5002   47.4294    7.3752 C.ar      1 MOL    -0.0171
     15 C11        69.9922   47.6781    6.4632 C.2       1 MOL     0.0459
     16 S9         70.2374   47.8160    8.1129 S.3       1 MOL    -0.1054
     17 H161       59.8952   46.2958    6.9204 H         1 MOL     0.1442
     18 H162       59.7420   46.3471    8.6623 H         1 MOL     0.1442
@<TRIPOS>BOND
     1    2    1 ar
     2    1    7 ar
     3    1   12 ar
     4    3    2 ar
     5    2    9 ar
     6   14    3 ar
     7    4    5 1 
     8    4    6 2 
     9    4   14 1 
    10    5   15 2 
    11    6   16 1 
    12    7    8 ar
    13    8   10 ar
    14    8   11 1 
    15    9   10 ar
    16   12   13 ar
    17   13   14 ar
    18   15   16 1 
    19   17   11 1 
    20   18   11 1 
@<TRIPOS>SUBSTRUCTURE
1 MOL         1
@<TRIPOS>MOLECULE
query molecule
   18    20     1     0     0
SMALL
NO_CHARGE

@<TRIPOS>ATOM
      1 C4         76.1426   42.1277    7.6017 C.ar      1 MOL     0.0725
      2 C5         77.4349   42.4550    8.0199 C.ar      1 MOL     0.0009
      3 C6         77.6962   42.6456    9.3771 C.ar      1 MOL     0.0187
      4 C7         76.9222   42.7055   11.6941 C.2       1 MOL    -0.0112
      5 C8         78.1091   42.3221   12.2455 C.2       1 MOL     0.0163
      6 C10        76.0868   43.2849   12.5755 C.2       1 MOL     0.0538
      7 N12        75.8746   41.9211    6.3022 N.ar      1 MOL    -0.2334
      8 C13        76.8362   42.0253    5.3603 C.ar      1 MOL     0.1153
      9 C15        78.4519   42.5760    7.0726 C.ar      1 MOL     0.0138
     10 C14        78.1477   42.3593    5.7230 C.ar      1 MOL     0.0445
     11 N16        76.5269   41.8297    4.0786 N.pl3     1 MOL    -0.3432
     12 C3         75.1248   41.9931    8.5449 C.ar      1 MOL     0.0295
     13 C2         75.3850   42.1908    9.9032 C.ar      1 MOL     0.0108
     14 C1         76.6694   42.5330   10.3289 C.ar      1 MOL    -0.0171
     15 C11        78.3017   42.5308   13.5574 C.2       1 MOL     0.0459
     16 S9         76.8946   43.2715   14.0792 S.3       1 MOL    -0.1054
     17 H161       75.6987   42.2562    3.6882 H         1 MOL     0.1442
     18 H162       77.1206   41.2551    3.4978 H         1 MOL     0.1442
@<TRIPOS>BOND
     1    2    1 ar
     2    1    7 ar
     3    1   12 ar
     4    3    2 ar
     5    2    9 ar
     6   14    3 ar
     7    4    5 1 
     8    4    6 2 
     9    4   14 1 
    10    5   15 2 
    11    6   16 1 
    12    7    8 ar
    13    8   10 ar
    14    8   11 1 
    15    9   10 ar
    16   12   13 ar
    17   13   14 ar
    18   15   16 1 
    19   17   11 1 
    20   18   11 1 
@<TRIPOS>SUBSTRUCTURE
1 MOL         1
@<TRIPOS>MOLECULE
query molecule
   18    20     1     0     0
SMALL
NO_CHARGE

@<TRIPOS>ATOM
      1 C4         62.8451   46.8090   16.7293 C.ar      1 MOL     0.0725
      2 C5         64.1078   47.3427   16.4600 C.ar      1 MOL     0.0009
      3 C6         64.3921   48.6618   16.8144 C.ar      1 MOL     0.0187
      4 C7         63.6938   50.7878   17.7964 C.2       1 MOL    -0.0112
      5 C8         64.1075   51.7093   16.8802 C.2       1 MOL     0.0163
      6 C10        63.5485   51.2942   19.0345 C.2       1 MOL     0.0538
      7 N12        62.5578   45.5358   16.4137 N.ar      1 MOL    -0.2334
      8 C13        63.4707   44.7334   15.8259 C.ar      1 MOL     0.1153
      9 C15        65.0738   46.5432   15.8485 C.ar      1 MOL     0.0138
     10 C14        64.7499   45.2197   15.5255 C.ar      1 MOL     0.0445
     11 N16        63.1417   43.4805   15.5122 N.pl3     1 MOL    -0.3432
     12 C3         61.8796   47.5992   17.3515 C.ar      1 MOL     0.0295
     13 C2         62.1621   48.9223   17.7001 C.ar      1 MOL     0.0108
     14 C1         63.4157   49.4689   17.4213 C.ar      1 MOL    -0.0171
     15 C11        64.3404   52.9642   17.2959 C.2       1 MOL     0.0459
     16 S9         63.9854   52.9411   18.9312 S.3       1 MOL    -0.1054
     17 H161       62.1816   43.1761   15.5888 H         1 MOL     0.1442
     18 H162       63.8523   42.8353   15.1979 H         1 MOL     0.1442
@<TRIPOS>BOND
     1    2    1 ar
     2    1    7 ar
     3    1   12 ar
     4    3    2 ar
     5    2    9 ar
     6   14    3 ar
     7    4    5 1 
     8    4    6 2 
     9    4   14 1 
    10    5   15 2 
    11    6   16 1 
    12    7    8 ar
    13    8   10 ar
    14    8   11 1 
    15    9   10 ar
    16   12   13 ar
    17   13   14 ar
    18   15   16 1 
    19   17   11 1 
    20   18   11 1 
@<TRIPOS>SUBSTRUCTURE
1 MOL         1
@<TRIPOS>MOLECULE
query molecule
   18    20     1     0     0
SMALL
NO_CHARGE

@<TRIPOS>ATOM
      1 C4         67.3891   53.3202   11.2373 C.ar      1 MOL     0.0725
      2 C5         68.0752   53.6579   10.0680 C.ar      1 MOL     0.0009
      3 C6         68.6674   52.6560    9.2986 C.ar      1 MOL     0.0187
      4 C7         69.1758   50.2952    8.9250 C.2       1 MOL    -0.0112
      5 C8         70.5185   50.2639    8.6886 C.2       1 MOL     0.0163
      6 C10        68.5153   49.2524    8.3895 C.2       1 MOL     0.0538
      7 N12        66.7958   54.2675   11.9815 N.ar      1 MOL    -0.2334
      8 C13        66.8440   55.5704   11.6310 C.ar      1 MOL     0.1153
      9 C15        68.1493   54.9955    9.6788 C.ar      1 MOL     0.0138
     10 C14        67.5258   55.9660   10.4726 C.ar      1 MOL     0.0445
     11 N16        66.2572   56.4829   12.4052 N.pl3     1 MOL    -0.3432
     12 C3         67.3010   51.9839   11.6249 C.ar      1 MOL     0.0295
     13 C2         67.8999   50.9814   10.8581 C.ar      1 MOL     0.0108
     14 C1         68.6004   51.3105    9.6966 C.ar      1 MOL    -0.0171
     15 C11        71.0156   49.2540    7.9574 C.2       1 MOL     0.0459
     16 S9         69.6874   48.3055    7.5874 S.3       1 MOL    -0.1054
     17 H161       65.8980   56.2203   13.3120 H         1 MOL     0.1442
     18 H162       66.1717   57.4371   12.0853 H         1 MOL     0.1442
@<TRIPOS>BOND
     1    2    1 ar
     2    1    7 ar
     3    1   12 ar
     4    3    2 ar
     5    2    9 ar
     6   14    3 ar
     7    4    5 1 
     8    4    6 2 
     9    4   14 1 
    10    5   15 2 
    11    6   16 1 
    12    7    8 ar
    13    8   10 ar
    14    8   11 1 
    15    9   10 ar
    16   12   13 ar
    17   13   14 ar
    18   15   16 1 
    19   17   11 1 
    20   18   11 1 
@<TRIPOS>SUBSTRUCTURE
1 MOL         1
@<TRIPOS>MOLECULE
query molecule
   18    20     1     0     0
SMALL
NO_CHARGE

@<TRIPOS>ATOM
      1 C4         67.6481   53.3093   11.6655 C.ar      1 MOL     0.0725
      2 C5         68.8037   53.4596   10.8949 C.ar      1 MOL     0.0009
      3 C6         69.8577   52.5577   11.0439 C.ar      1 MOL     0.0187
      4 C7         70.8233   50.5894   12.1233 C.2       1 MOL    -0.0112
      5 C8         71.7119   50.6889   13.1529 C.2       1 MOL     0.0163
      6 C10        71.0378   49.5205   11.3347 C.2       1 MOL     0.0538
      7 N12        66.6148   54.1551   11.5233 N.ar      1 MOL    -0.2334
      8 C13        66.6572   55.1753   10.6401 C.ar      1 MOL     0.1153
      9 C15        68.8835   54.5063    9.9760 C.ar      1 MOL     0.0138
     10 C14        67.7949   55.3776    9.8478 C.ar      1 MOL     0.0445
     11 N16        65.6179   56.0040   10.5406 N.pl3     1 MOL    -0.3432
     12 C3         67.5573   52.2579   12.5766 C.ar      1 MOL     0.0295
     13 C2         68.6155   51.3589   12.7308 C.ar      1 MOL     0.0108
     14 C1         69.7800   51.5099   11.9764 C.ar      1 MOL    -0.0171
     15 C11        72.6803   49.7648   13.2532 C.2       1 MOL     0.0459
     16 S9         72.4048   48.7224   11.9734 S.3       1 MOL    -0.1054
     17 H161       64.8645   55.9520   11.2113 H         1 MOL     0.1442
     18 H162       65.5839   56.6840    9.7946 H         1 MOL     0.1442
@<TRIPOS>BOND
     1    2    1 ar
     2    1    7 ar
     3    1   12 ar
     4    3    2 ar
     5    2    9 ar
     6   14    3 ar
     7    4    5 1 
     8    4    6 2 
     9    4   14 1 
    10    5   15 2 
    11    6   16 1 
    12    7    8 ar
    13    8   10 ar
    14    8   11 1 
    15    9   10 ar
    16   12   13 ar
    17   13   14 ar
    18   15   16 1 
    19   17   11 1 
    20   18   11 1 
@<TRIPOS>SUBSTRUCTURE
1 MOL         1
@<TRIPOS>MOLECULE
query molecule
   18    20     1     0     0
SMALL
NO_CHARGE

@<TRIPOS>ATOM
      1 C4         78.5809   45.0284    8.9992 C.ar      1 MOL     0.0725
      2 C5         79.9373   44.7322    8.8427 C.ar      1 MOL     0.0009
      3 C6         80.3657   44.0187    7.7229 C.ar      1 MOL     0.0187
      4 C7         79.8648   42.8733    5.6233 C.2       1 MOL    -0.0112
      5 C8         80.4896   43.5096    4.5916 C.2       1 MOL     0.0163
      6 C10        79.7516   41.5450    5.4408 C.2       1 MOL     0.0538
      7 N12        78.1508   45.7307   10.0598 N.ar      1 MOL    -0.2334
      8 C13        79.0067   46.1688   11.0076 C.ar      1 MOL     0.1153
      9 C15        80.8490   45.1650    9.8060 C.ar      1 MOL     0.0138
     10 C14        80.3765   45.8928   10.9051 C.ar      1 MOL     0.0445
     11 N16        78.5388   46.8480   12.0546 N.pl3     1 MOL    -0.3432
     12 C3         77.6666   44.6094    8.0337 C.ar      1 MOL     0.0295
     13 C2         78.0948   43.8889    6.9159 C.ar      1 MOL     0.0108
     14 C1         79.4456   43.5751    6.7587 C.ar      1 MOL    -0.0171
     15 C11        80.8865   42.7802    3.5370 C.2       1 MOL     0.0459
     16 S9         80.4479   41.2109    3.9185 S.3       1 MOL    -0.1054
     17 H161       79.1413   47.4887   12.5512 H         1 MOL     0.1442
     18 H162       77.5816   46.7221   12.3514 H         1 MOL     0.1442
@<TRIPOS>BOND
     1    2    1 ar
     2    1    7 ar
     3    1   12 ar
     4    3    2 ar
     5    2    9 ar
     6   14    3 ar
     7    4    5 1 
     8    4    6 2 
     9    4   14 1 
    10    5   15 2 
    11    6   16 1 
    12    7    8 ar
    13    8   10 ar
    14    8   11 1 
    15    9   10 ar
    16   12   13 ar
    17   13   14 ar
    18   15   16 1 
    19   17   11 1 
    20   18   11 1 
@<TRIPOS>SUBSTRUCTURE
1 MOL         1
@<TRIPOS>MOLECULE
query molecule
   18    20     1     0     0
SMALL
NO_CHARGE

@<TRIPOS>ATOM
      1 C4         76.0858   46.3615    8.5691 C.ar      1 MOL     0.0725
      2 C5         75.8911   46.6747    9.9167 C.ar      1 MOL     0.0009
      3 C6         74.7909   47.4437   10.2971 C.ar      1 MOL     0.0187
      4 C7         72.7694   48.6841    9.7081 C.2       1 MOL    -0.0112
      5 C8         71.6467   48.0902   10.2047 C.2       1 MOL     0.0163
      6 C10        72.6893   50.0266    9.6671 C.2       1 MOL     0.0538
      7 N12        77.1276   45.6065    8.1847 N.ar      1 MOL    -0.2334
      8 C13        78.0193   45.1300    9.0794 C.ar      1 MOL     0.1153
      9 C15        76.7964   46.2033   10.8677 C.ar      1 MOL     0.0138
     10 C14        77.8769   45.4206   10.4427 C.ar      1 MOL     0.0445
     11 N16        79.0501   44.3984    8.6565 N.pl3     1 MOL    -0.3432
     12 C3         75.1777   46.8194    7.6155 C.ar      1 MOL     0.0295
     13 C2         74.0799   47.5953    7.9956 C.ar      1 MOL     0.0108
     14 C1         73.8855   47.9261    9.3375 C.ar      1 MOL    -0.0171
     15 C11        70.6149   48.8710   10.5615 C.2       1 MOL     0.0459
     16 S9         71.1398   50.4308   10.2582 S.3       1 MOL    -0.1054
     17 H161       79.4917   43.7392    9.2815 H         1 MOL     0.1442
     18 H162       79.3896   44.5032    7.7111 H         1 MOL     0.1442
@<TRIPOS>BOND
     1    2    1 ar
     2    1    7 ar
     3    1   12 ar
     4    3    2 ar
     5    2    9 ar
     6   14    3 ar
     7    4    5 1 
     8    4    6 2 
     9    4   14 1 
    10    5   15 2 
    11    6   16 1 
    12    7    8 ar
    13    8   10 ar
    14    8   11 1 
    15    9   10 ar
    16   12   13 ar
    17   13   14 ar
    18   15   16 1 
    19   17   11 1 
    20   18   11 1 
@<TRIPOS>SUBSTRUCTURE
1 MOL         1
@<TRIPOS>MOLECULE
query molecule
   18    20     1     0     0
SMALL
NO_CHARGE

@<TRIPOS>ATOM
      1 C4         69.5858   40.3752   15.4023 C.ar      1 MOL     0.0725
      2 C5         69.2915   39.5855   16.5167 C.ar      1 MOL     0.0009
      3 C6         70.1587   39.5792   17.6096 C.ar      1 MOL     0.0187
      4 C7         72.2069   40.3575   18.6916 C.2       1 MOL    -0.0112
      5 C8         72.1761   41.3721   19.6023 C.2       1 MOL     0.0163
      6 C10        73.1005   39.3975   18.9922 C.2       1 MOL     0.0538
      7 N12        68.7544   40.4103   14.3484 N.ar      1 MOL    -0.2334
      8 C13        67.6151   39.6861   14.3267 C.ar      1 MOL     0.1153
      9 C15        68.1250   38.8203   16.5257 C.ar      1 MOL     0.0138
     10 C14        67.2752   38.8704   15.4139 C.ar      1 MOL     0.0445
     11 N16        66.8244   39.7342   13.2548 N.pl3     1 MOL    -0.3432
     12 C3         70.7436   41.1517   15.3925 C.ar      1 MOL     0.0295
     13 C2         71.6155   41.1400   16.4840 C.ar      1 MOL     0.0108
     14 C1         71.3378   40.3426   17.5953 C.ar      1 MOL    -0.0171
     15 C11        73.0209   41.3219   20.6442 C.2       1 MOL     0.0459
     16 S9         73.8649   39.8918   20.4362 S.3       1 MOL    -0.1054
     17 H161       65.8388   39.5323   13.3447 H         1 MOL     0.1442
     18 H162       67.2106   39.9727   12.3525 H         1 MOL     0.1442
@<TRIPOS>BOND
     1    2    1 ar
     2    1    7 ar
     3    1   12 ar
     4    3    2 ar
     5    2    9 ar
     6   14    3 ar
     7    4    5 1 
     8    4    6 2 
     9    4   14 1 
    10    5   15 2 
    11    6   16 1 
    12    7    8 ar
    13    8   10 ar
    14    8   11 1 
    15    9   10 ar
    16   12   13 ar
    17   13   14 ar
    18   15   16 1 
    19   17   11 1 
    20   18   11 1 
@<TRIPOS>SUBSTRUCTURE
1 MOL         1
@<TRIPOS>MOLECULE
query molecule
   18    20     1     0     0
SMALL
NO_CHARGE

@<TRIPOS>ATOM
      1 C4         67.5786   53.1314   11.5816 C.ar      1 MOL     0.0725
      2 C5         68.7733   53.3785   10.9008 C.ar      1 MOL     0.0009
      3 C6         69.8517   52.5068   11.0556 C.ar      1 MOL     0.0187
      4 C7         70.8268   50.5020   12.0562 C.2       1 MOL    -0.0112
      5 C8         71.8080   50.7269   12.9762 C.2       1 MOL     0.0163
      6 C10        70.9835   49.3495   11.3797 C.2       1 MOL     0.0538
      7 N12        66.5228   53.9474   11.4312 N.ar      1 MOL    -0.2334
      8 C13        66.5791   55.0295   10.6258 C.ar      1 MOL     0.1153
      9 C15        68.8682   54.4909   10.0643 C.ar      1 MOL     0.0138
     10 C14        67.7552   55.3294    9.9259 C.ar      1 MOL     0.0445
     11 N16        65.5153   55.8252   10.5163 N.pl3     1 MOL    -0.3432
     12 C3         67.4736   52.0145   12.4094 C.ar      1 MOL     0.0295
     13 C2         68.5557   51.1455   12.5697 C.ar      1 MOL     0.0108
     14 C1         69.7582   51.3925   11.9057 C.ar      1 MOL    -0.0171
     15 C11        72.7976   49.8270   13.0884 C.2       1 MOL     0.0459
     16 S9         72.4193   48.6402   11.9709 S.3       1 MOL    -0.1054
     17 H161       65.4169   56.6237   11.1269 H         1 MOL     0.1442
     18 H162       64.8077   55.6296    9.8227 H         1 MOL     0.1442
@<TRIPOS>BOND
     1    2    1 ar
     2    1    7 ar
     3    1   12 ar
     4    3    2 ar
     5    2    9 ar
     6   14    3 ar
     7    4    5 1 
     8    4    6 2 
     9    4   14 1 
    10    5   15 2 
    11    6   16 1 
    12    7    8 ar
    13    8   10 ar
    14    8   11 1 
    15    9   10 ar
    16   12   13 ar
    17   13   14 ar
    18   15   16 1 
    19   17   11 1 
    20   18   11 1 
@<TRIPOS>SUBSTRUCTURE
1 MOL         1
@<TRIPOS>MOLECULE
query molecule
   18    20     1     0     0
SMALL
NO_CHARGE

@<TRIPOS>ATOM
      1 C4         67.4650   53.0159   11.2021 C.ar      1 MOL     0.0725
      2 C5         68.6911   53.3188   10.6047 C.ar      1 MOL     0.0009
      3 C6         69.7286   52.3866   10.6416 C.ar      1 MOL     0.0187
      4 C7         70.5896   50.2030   11.3210 C.2       1 MOL    -0.0112
      5 C8         71.7893   50.4796   11.9074 C.2       1 MOL     0.0163
      6 C10        70.5068   48.9486   10.8413 C.2       1 MOL     0.0538
      7 N12        66.4477   53.8914   11.1607 N.ar      1 MOL    -0.2334
      8 C13        66.5739   55.0881   10.5485 C.ar      1 MOL     0.1153
      9 C15        68.8580   54.5487    9.9678 C.ar      1 MOL     0.0138
     10 C14        67.7841   55.4470    9.9405 C.ar      1 MOL     0.0445
     11 N16        65.5465   55.9372   10.5439 N.pl3     1 MOL    -0.3432
     12 C3         67.2881   51.7834   11.8292 C.ar      1 MOL     0.0295
     13 C2         68.3292   50.8528   11.8722 C.ar      1 MOL     0.0108
     14 C1         69.5625   51.1525   11.2915 C.ar      1 MOL    -0.0171
     15 C11        72.7298   49.5220   11.9219 C.2       1 MOL     0.0459
     16 S9         72.0129   48.2132   11.1646 S.3       1 MOL    -0.1054
     17 H161       64.7783   55.8040   11.1860 H         1 MOL     0.1442
     18 H162       65.5360   56.7138    9.8983 H         1 MOL     0.1442
@<TRIPOS>BOND
     1    2    1 ar
     2    1    7 ar
     3    1   12 ar
     4    3    2 ar
     5    2    9 ar
     6   14    3 ar
     7    4    5 1 
     8    4    6 2 
     9    4   14 1 
    10    5   15 2 
    11    6   16 1 
    12    7    8 ar
    13    8   10 ar
    14    8   11 1 
    15    9   10 ar
    16   12   13 ar
    17   13   14 ar
    18   15   16 1 
    19   17   11 1 
    20   18   11 1 
@<TRIPOS>SUBSTRUCTURE
1 MOL         1
@<TRIPOS>MOLECULE
query molecule
   18    20     1     0     0
SMALL
NO_CHARGE

@<TRIPOS>ATOM
      1 C4         76.3936   45.4708    9.1789 C.ar      1 MOL     0.0725
      2 C5         76.7809   46.4972   10.0440 C.ar      1 MOL     0.0009
      3 C6         75.8226   47.3775   10.5472 C.ar      1 MOL     0.0187
      4 C7         73.5000   48.1238   10.6884 C.2       1 MOL    -0.0112
      5 C8         72.8413   49.0010    9.8783 C.2       1 MOL     0.0163
      6 C10        73.0829   48.1619   11.9671 C.2       1 MOL     0.0538
      7 N12        77.2974   44.6013    8.6990 N.ar      1 MOL    -0.2334
      8 C13        78.6033   44.6897    9.0299 C.ar      1 MOL     0.1153
      9 C15        78.1234   46.6212   10.4027 C.ar      1 MOL     0.0138
     10 C14        79.0482   45.7049    9.8871 C.ar      1 MOL     0.0445
     11 N16        79.4728   43.8181    8.5191 N.pl3     1 MOL    -0.3432
     12 C3         75.0516   45.3341    8.8266 C.ar      1 MOL     0.0295
     13 C2         74.0931   46.2199    9.3250 C.ar      1 MOL     0.0108
     14 C1         74.4727   47.2576   10.1776 C.ar      1 MOL    -0.0171
     15 C11        71.9043   49.7935   10.4221 C.2       1 MOL     0.0459
     16 S9         71.8700   49.3609   12.0383 S.3       1 MOL    -0.1054
     17 H161       79.8418   43.9587    7.5894 H         1 MOL     0.1442
     18 H162       79.7627   43.0170    9.0615 H         1 MOL     0.1442
@<TRIPOS>BOND
     1    2    1 ar
     2    1    7 ar
     3    1   12 ar
     4    3    2 ar
     5    2    9 ar
     6   14    3 ar
     7    4    5 1 
     8    4    6 2 
     9    4   14 1 
    10    5   15 2 
    11    6   16 1 
    12    7    8 ar
    13    8   10 ar
    14    8   11 1 
    15    9   10 ar
    16   12   13 ar
    17   13   14 ar
    18   15   16 1 
    19   17   11 1 
    20   18   11 1 
@<TRIPOS>SUBSTRUCTURE
1 MOL         1
@<TRIPOS>MOLECULE
query molecule
   18    20     1     0     0
SMALL
NO_CHARGE

@<TRIPOS>ATOM
      1 C4         76.3228   45.5808    9.1552 C.ar      1 MOL     0.0725
      2 C5         76.7125   46.6197   10.0041 C.ar      1 MOL     0.0009
      3 C6         75.7524   47.4932   10.5156 C.ar      1 MOL     0.0187
      4 C7         73.4238   48.2133   10.6897 C.2       1 MOL    -0.0112
      5 C8         72.9076   49.2292    9.9406 C.2       1 MOL     0.0163
      6 C10        72.8707   48.1177   11.9126 C.2       1 MOL     0.0538
      7 N12        77.2288   44.7176    8.6678 N.ar      1 MOL    -0.2334
      8 C13        78.5390   44.8245    8.9755 C.ar      1 MOL     0.1153
      9 C15        78.0593   46.7629   10.3387 C.ar      1 MOL     0.0138
     10 C14        78.9862   45.8528    9.8156 C.ar      1 MOL     0.0445
     11 N16        79.4100   43.9586    8.4578 N.pl3     1 MOL    -0.3432
     12 C3         74.9768   45.4250    8.8271 C.ar      1 MOL     0.0295
     13 C2         74.0163   46.3040    9.3337 C.ar      1 MOL     0.0108
     14 C1         74.3980   47.3539   10.1703 C.ar      1 MOL    -0.0171
     15 C11        71.9612   50.0090   10.4864 C.2       1 MOL     0.0459
     16 S9         71.7249   49.3786   12.0185 S.3       1 MOL    -0.1054
     17 H161       79.6702   43.1324    8.9774 H         1 MOL     0.1442
     18 H162       79.8098   44.1284    7.5460 H         1 MOL     0.1442
@<TRIPOS>BOND
     1    2    1 ar
     2    1    7 ar
     3    1   12 ar
     4    3    2 ar
     5    2    9 ar
     6   14    3 ar
     7    4    5 1 
     8    4    6 2 
     9    4   14 1 
    10    5   15 2 
    11    6   16 1 
    12    7    8 ar
    13    8   10 ar
    14    8   11 1 
    15    9   10 ar
    16   12   13 ar
    17   13   14 ar
    18   15   16 1 
    19   17   11 1 
    20   18   11 1 
@<TRIPOS>SUBSTRUCTURE
1 MOL         1
@<TRIPOS>MOLECULE
query molecule
   18    20     1     0     0
SMALL
NO_CHARGE

@<TRIPOS>ATOM
      1 C4         64.0605   44.8662   11.3815 C.ar      1 MOL     0.0725
      2 C5         63.5341   46.1292   11.6638 C.ar      1 MOL     0.0009
      3 C6         63.7230   46.6918   12.9265 C.ar      1 MOL     0.0187
      4 C7         64.6298   46.5543   15.1915 C.2       1 MOL    -0.0112
      5 C8         64.7253   45.7704   16.3033 C.2       1 MOL     0.0163
      6 C10        64.8026   47.8643   15.4456 C.2       1 MOL     0.0538
      7 N12        63.9064   44.3155   10.1665 N.ar      1 MOL    -0.2334
      8 C13        63.2391   44.9563    9.1831 C.ar      1 MOL     0.1153
      9 C15        62.8342   46.8173   10.6724 C.ar      1 MOL     0.0138
     10 C14        62.6834   46.2215    9.4142 C.ar      1 MOL     0.0445
     11 N16        63.0924   44.3690    7.9956 N.pl3     1 MOL    -0.3432
     12 C3         64.7716   44.1789   12.3641 C.ar      1 MOL     0.0295
     13 C2         64.9547   44.7394   13.6307 C.ar      1 MOL     0.0108
     14 C1         64.4195   45.9939   13.9269 C.ar      1 MOL    -0.0171
     15 C11        64.9469   46.3638   17.4867 C.2       1 MOL     0.0459
     16 S9         65.0555   47.9949   17.1287 S.3       1 MOL    -0.1054
     17 H161       63.0271   43.3630    7.9344 H         1 MOL     0.1442
     18 H162       63.0466   44.9300    7.1570 H         1 MOL     0.1442
@<TRIPOS>BOND
     1    2    1 ar
     2    1    7 ar
     3    1   12 ar
     4    3    2 ar
     5    2    9 ar
     6   14    3 ar
     7    4    5 1 
     8    4    6 2 
     9    4   14 1 
    10    5   15 2 
    11    6   16 1 
    12    7    8 ar
    13    8   10 ar
    14    8   11 1 
    15    9   10 ar
    16   12   13 ar
    17   13   14 ar
    18   15   16 1 
    19   17   11 1 
    20   18   11 1 
@<TRIPOS>SUBSTRUCTURE
1 MOL         1
@<TRIPOS>MOLECULE
query molecule
   18    20     1     0     0
SMALL
NO_CHARGE

@<TRIPOS>ATOM
      1 C4         64.1939   44.9930   11.5200 C.ar      1 MOL     0.0725
      2 C5         63.6983   46.2805   11.7409 C.ar      1 MOL     0.0009
      3 C6         63.8129   46.8593   13.0051 C.ar      1 MOL     0.0187
      4 C7         64.5386   46.7300   15.3350 C.2       1 MOL    -0.0112
      5 C8         64.0945   46.0873   16.4527 C.2       1 MOL     0.0163
      6 C10        65.1364   47.9065   15.5979 C.2       1 MOL     0.0538
      7 N12        64.1108   44.4257   10.3058 N.ar      1 MOL    -0.2334
      8 C13        63.5463   45.0728    9.2640 C.ar      1 MOL     0.1153
      9 C15        63.1038   46.9761   10.6878 C.ar      1 MOL     0.0138
     10 C14        63.0255   46.3627    9.4314 C.ar      1 MOL     0.0445
     11 N16        63.4671   44.4692    8.0783 N.pl3     1 MOL    -0.3432
     12 C3         64.8002   44.2976   12.5653 C.ar      1 MOL     0.0295
     13 C2         64.9087   44.8746   13.8330 C.ar      1 MOL     0.0108
     14 C1         64.4030   46.1542   14.0671 C.ar      1 MOL    -0.0171
     15 C11        64.2700   46.6809   17.6438 C.2       1 MOL     0.0459
     16 S9         65.0600   48.1132   17.2906 S.3       1 MOL    -0.1054
     17 H161       62.5669   44.1997    7.7080 H         1 MOL     0.1442
     18 H162       64.3072   44.2813    7.5501 H         1 MOL     0.1442
@<TRIPOS>BOND
     1    2    1 ar
     2    1    7 ar
     3    1   12 ar
     4    3    2 ar
     5    2    9 ar
     6   14    3 ar
     7    4    5 1 
     8    4    6 2 
     9    4   14 1 
    10    5   15 2 
    11    6   16 1 
    12    7    8 ar
    13    8   10 ar
    14    8   11 1 
    15    9   10 ar
    16   12   13 ar
    17   13   14 ar
    18   15   16 1 
    19   17   11 1 
    20   18   11 1 
@<TRIPOS>SUBSTRUCTURE
1 MOL         1
@<TRIPOS>MOLECULE
query molecule
   18    20     1     0     0
SMALL
NO_CHARGE

@<TRIPOS>ATOM
      1 C4         70.9763   50.5650   12.2002 C.ar      1 MOL     0.0725
      2 C5         71.1730   49.3274   11.5824 C.ar      1 MOL     0.0009
      3 C6         70.3324   48.9315   10.5417 C.ar      1 MOL     0.0187
      4 C7         68.4357   49.3758    9.0663 C.2       1 MOL    -0.0112
      5 C8         68.8038   49.5678    7.7673 C.2       1 MOL     0.0163
      6 C10        67.2448   48.7637    9.1986 C.2       1 MOL     0.0538
      7 N12        71.7863   50.9730   13.1905 N.ar      1 MOL    -0.2334
      8 C13        72.8092   50.2059   13.6239 C.ar      1 MOL     0.1153
      9 C15        72.2175   48.5068   12.0088 C.ar      1 MOL     0.0138
     10 C14        73.0469   48.9520   13.0456 C.ar      1 MOL     0.0445
     11 N16        73.5805   50.6384   14.6212 N.pl3     1 MOL    -0.3432
     12 C3         69.9419   51.3950   11.7702 C.ar      1 MOL     0.0295
     13 C2         69.0959   50.9954   10.7327 C.ar      1 MOL     0.0108
     14 C1         69.2751   49.7544   10.1198 C.ar      1 MOL    -0.0171
     15 C11        67.9652   49.1664    6.7992 C.2       1 MOL     0.0459
     16 S9         66.6661   48.4976    7.6150 S.3       1 MOL    -0.1054
     17 H161       74.5007   50.2443   14.7555 H         1 MOL     0.1442
     18 H162       73.2447   51.3603   15.2427 H         1 MOL     0.1442
@<TRIPOS>BOND
     1    2    1 ar
     2    1    7 ar
     3    1   12 ar
     4    3    2 ar
     5    2    9 ar
     6   14    3 ar
     7    4    5 1 
     8    4    6 2 
     9    4   14 1 
    10    5   15 2 
    11    6   16 1 
    12    7    8 ar
    13    8   10 ar
    14    8   11 1 
    15    9   10 ar
    16   12   13 ar
    17   13   14 ar
    18   15   16 1 
    19   17   11 1 
    20   18   11 1 
@<TRIPOS>SUBSTRUCTURE
1 MOL         1
@<TRIPOS>MOLECULE
query molecule
   18    20     1     0     0
SMALL
NO_CHARGE

@<TRIPOS>ATOM
      1 C4         70.9754   50.6016   12.2699 C.ar      1 MOL     0.0725
      2 C5         71.1328   49.3578   11.6535 C.ar      1 MOL     0.0009
      3 C6         70.2704   48.9810   10.6236 C.ar      1 MOL     0.0187
      4 C7         68.3689   49.4705    9.1688 C.2       1 MOL    -0.0112
      5 C8         68.7328   49.6356    7.8650 C.2       1 MOL     0.0163
      6 C10        67.1581   48.9026    9.3171 C.2       1 MOL     0.0538
      7 N12        71.8069   50.9910   13.2497 N.ar      1 MOL    -0.2334
      8 C13        72.8147   50.1989   13.6735 C.ar      1 MOL     0.1153
      9 C15        72.1607   48.5115   12.0702 C.ar      1 MOL     0.0138
     10 C14        73.0132   48.9378   13.0961 C.ar      1 MOL     0.0445
     11 N16        73.6083   50.6139   14.6607 N.pl3     1 MOL    -0.3432
     12 C3         69.9578   51.4569   11.8494 C.ar      1 MOL     0.0295
     13 C2         69.0899   51.0767   10.8228 C.ar      1 MOL     0.0108
     14 C1         69.2298   49.8299   10.2115 C.ar      1 MOL    -0.0171
     15 C11        67.8725   49.2543    6.9079 C.2       1 MOL     0.0459
     16 S9         66.5572   48.6407    7.7410 S.3       1 MOL    -0.1054
     17 H161       74.1643   49.9465   15.1762 H         1 MOL     0.1442
     18 H162       73.6538   51.5957   14.8932 H         1 MOL     0.1442
@<TRIPOS>BOND
     1    2    1 ar
     2    1    7 ar
     3    1   12 ar
     4    3    2 ar
     5    2    9 ar
     6   14    3 ar
     7    4    5 1 
     8    4    6 2 
     9    4   14 1 
    10    5   15 2 
    11    6   16 1 
    12    7    8 ar
    13    8   10 ar
    14    8   11 1 
    15    9   10 ar
    16   12   13 ar
    17   13   14 ar
    18   15   16 1 
    19   17   11 1 
    20   18   11 1 
@<TRIPOS>SUBSTRUCTURE
1 MOL         1
@<TRIPOS>MOLECULE
query molecule
   18    20     1     0     0
SMALL
NO_CHARGE

@<TRIPOS>ATOM
      1 C4         69.2774   48.1793    9.2850 C.ar      1 MOL     0.0725
      2 C5         70.6581   47.9929    9.3893 C.ar      1 MOL     0.0009
      3 C6         71.3680   48.6299   10.4074 C.ar      1 MOL     0.0187
      4 C7         71.4120   50.1065   12.3540 C.2       1 MOL    -0.0112
      5 C8         71.1900   51.4173   12.6577 C.2       1 MOL     0.0163
      6 C10        72.3070   49.5148   13.1660 C.2       1 MOL     0.0538
      7 N12        68.5729   47.5599    8.3241 N.ar      1 MOL    -0.2334
      8 C13        69.1698   46.7442    7.4291 C.ar      1 MOL     0.1153
      9 C15        71.3082   47.1607    8.4776 C.ar      1 MOL     0.0138
     10 C14        70.5531   46.5282    7.4822 C.ar      1 MOL     0.0445
     11 N16        68.4387   46.1611    6.4793 N.pl3     1 MOL    -0.3432
     12 C3         68.6201   48.9999   10.2006 C.ar      1 MOL     0.0295
     13 C2         69.3322   49.6433   11.2159 C.ar      1 MOL     0.0108
     14 C1         70.7139   49.4753   11.3188 C.ar      1 MOL    -0.0171
     15 C11        71.8759   51.9631   13.6742 C.2       1 MOL     0.0459
     16 S9         72.8232   50.7158   14.2637 S.3       1 MOL    -0.1054
     17 H161       67.7396   45.4762    6.7292 H         1 MOL     0.1442
     18 H162       68.5837   46.4040    5.5098 H         1 MOL     0.1442
@<TRIPOS>BOND
     1    2    1 ar
     2    1    7 ar
     3    1   12 ar
     4    3    2 ar
     5    2    9 ar
     6   14    3 ar
     7    4    5 1 
     8    4    6 2 
     9    4   14 1 
    10    5   15 2 
    11    6   16 1 
    12    7    8 ar
    13    8   10 ar
    14    8   11 1 
    15    9   10 ar
    16   12   13 ar
    17   13   14 ar
    18   15   16 1 
    19   17   11 1 
    20   18   11 1 
@<TRIPOS>SUBSTRUCTURE
1 MOL         1
@<TRIPOS>MOLECULE
query molecule
   18    20     1     0     0
SMALL
NO_CHARGE

@<TRIPOS>ATOM
      1 C4         69.1957   48.5116    9.3285 C.ar      1 MOL     0.0725
      2 C5         70.5661   48.2432    9.3720 C.ar      1 MOL     0.0009
      3 C6         71.3376   48.7471   10.4196 C.ar      1 MOL     0.0187
      4 C7         71.5163   50.0377   12.4869 C.2       1 MOL    -0.0112
      5 C8         71.4701   51.3565   12.8310 C.2       1 MOL     0.0163
      6 C10        72.3082   49.3041   13.2902 C.2       1 MOL     0.0538
      7 N12        68.4322   48.0198    8.3395 N.ar      1 MOL    -0.2334
      8 C13        68.9583   47.2574    7.3572 C.ar      1 MOL     0.1153
      9 C15        71.1439   47.4631    8.3701 C.ar      1 MOL     0.0138
     10 C14        70.3283   46.9641    7.3471 C.ar      1 MOL     0.0445
     11 N16        68.1705   46.8021    6.3832 N.pl3     1 MOL    -0.3432
     12 C3         68.6102   49.2801   10.3336 C.ar      1 MOL     0.0295
     13 C2         69.3841   49.7905   11.3788 C.ar      1 MOL     0.0108
     14 C1         70.7565   49.5405   11.4225 C.ar      1 MOL    -0.0171
     15 C11        72.2064   51.7714   13.8738 C.2       1 MOL     0.0459
     16 S9         72.9645   50.3885   14.4335 S.3       1 MOL    -0.1054
     17 H161       67.4411   46.1358    6.5935 H         1 MOL     0.1442
     18 H162       68.3028   47.1234    5.4349 H         1 MOL     0.1442
@<TRIPOS>BOND
     1    2    1 ar
     2    1    7 ar
     3    1   12 ar
     4    3    2 ar
     5    2    9 ar
     6   14    3 ar
     7    4    5 1 
     8    4    6 2 
     9    4   14 1 
    10    5   15 2 
    11    6   16 1 
    12    7    8 ar
    13    8   10 ar
    14    8   11 1 
    15    9   10 ar
    16   12   13 ar
    17   13   14 ar
    18   15   16 1 
    19   17   11 1 
    20   18   11 1 
@<TRIPOS>SUBSTRUCTURE
1 MOL         1
@<TRIPOS>MOLECULE
query molecule
   18    20     1     0     0
SMALL
NO_CHARGE

@<TRIPOS>ATOM
      1 C4         73.1134   47.2735    3.0900 C.ar      1 MOL     0.0725
      2 C5         73.8562   46.4660    3.9549 C.ar      1 MOL     0.0009
      3 C6         74.0623   46.8703    5.2742 C.ar      1 MOL     0.0187
      4 C7         73.7346   48.5008    7.0647 C.2       1 MOL    -0.0112
      5 C8         73.7568   47.5964    8.0851 C.2       1 MOL     0.0163
      6 C10        73.9511   49.7660    7.4682 C.2       1 MOL     0.0538
      7 N12        72.8873   46.8932    1.8222 N.ar      1 MOL    -0.2334
      8 C13        73.3693   45.7276    1.3407 C.ar      1 MOL     0.1153
      9 C15        74.3738   45.2572    3.4889 C.ar      1 MOL     0.0138
     10 C14        74.1279   44.8832    2.1621 C.ar      1 MOL     0.0445
     11 N16        73.1380   45.3934    0.0713 N.pl3     1 MOL    -0.3432
     12 C3         72.5830   48.4767    3.5533 C.ar      1 MOL     0.0295
     13 C2         72.7953   48.8848    4.8725 C.ar      1 MOL     0.0108
     14 C1         73.5489   48.0922    5.7395 C.ar      1 MOL    -0.0171
     15 C11        73.9583   48.0460    9.3337 C.2       1 MOL     0.0459
     16 S9         74.1465   49.7000    9.1627 S.3       1 MOL    -0.1054
     17 H161       73.9006   45.3647   -0.5904 H         1 MOL     0.1442
     18 H162       72.2003   45.1687   -0.2290 H         1 MOL     0.1442
@<TRIPOS>BOND
     1    2    1 ar
     2    1    7 ar
     3    1   12 ar
     4    3    2 ar
     5    2    9 ar
     6   14    3 ar
     7    4    5 1 
     8    4    6 2 
     9    4   14 1 
    10    5   15 2 
    11    6   16 1 
    12    7    8 ar
    13    8   10 ar
    14    8   11 1 
    15    9   10 ar
    16   12   13 ar
    17   13   14 ar
    18   15   16 1 
    19   17   11 1 
    20   18   11 1 
@<TRIPOS>SUBSTRUCTURE
1 MOL         1
@<TRIPOS>MOLECULE
query molecule
   18    20     1     0     0
SMALL
NO_CHARGE

@<TRIPOS>ATOM
      1 C4         73.0536   47.1165    2.6956 C.ar      1 MOL     0.0725
      2 C5         73.8367   46.3455    3.5582 C.ar      1 MOL     0.0009
      3 C6         74.0569   46.7777    4.8663 C.ar      1 MOL     0.0187
      4 C7         73.7173   48.4279    6.6363 C.2       1 MOL    -0.0112
      5 C8         74.3168   49.6243    6.8990 C.2       1 MOL     0.0163
      6 C10        73.3197   47.7757    7.7440 C.2       1 MOL     0.0538
      7 N12        72.8136   46.7086    1.4389 N.ar      1 MOL    -0.2334
      8 C13        73.3198   45.5495    0.9668 C.ar      1 MOL     0.1153
      9 C15        74.3801   45.1445    3.1015 C.ar      1 MOL     0.0138
     10 C14        74.1189   44.7413    1.7862 C.ar      1 MOL     0.0445
     11 N16        73.0733   45.1873   -0.2921 N.pl3     1 MOL    -0.3432
     12 C3         72.4975   48.3115    3.1500 C.ar      1 MOL     0.0295
     13 C2         72.7239   48.7478    4.4577 C.ar      1 MOL     0.0108
     14 C1         73.5173   47.9919    5.3220 C.ar      1 MOL    -0.0171
     15 C11        74.4637   49.9982    8.1798 C.2       1 MOL     0.0459
     16 S9         73.7760   48.7557    9.0650 S.3       1 MOL    -0.1054
     17 H161       72.8306   45.8857   -0.9802 H         1 MOL     0.1442
     18 H162       73.1294   44.2146   -0.5580 H         1 MOL     0.1442
@<TRIPOS>BOND
     1    2    1 ar
     2    1    7 ar
     3    1   12 ar
     4    3    2 ar
     5    2    9 ar
     6   14    3 ar
     7    4    5 1 
     8    4    6 2 
     9    4   14 1 
    10    5   15 2 
    11    6   16 1 
    12    7    8 ar
    13    8   10 ar
    14    8   11 1 
    15    9   10 ar
    16   12   13 ar
    17   13   14 ar
    18   15   16 1 
    19   17   11 1 
    20   18   11 1 
@<TRIPOS>SUBSTRUCTURE
1 MOL         1
@<TRIPOS>MOLECULE
query molecule
   18    20     1     0     0
SMALL
NO_CHARGE

@<TRIPOS>ATOM
      1 C4         72.7114   49.7215    9.4311 C.ar      1 MOL     0.0725
      2 C5         72.9564   48.9651   10.5799 C.ar      1 MOL     0.0009
      3 C6         74.0505   48.1002   10.6193 C.ar      1 MOL     0.0187
      4 C7         76.0087   47.1128    9.5414 C.2       1 MOL    -0.0112
      5 C8         77.1243   47.4358   10.2561 C.2       1 MOL     0.0163
      6 C10        76.0883   45.9108    8.9421 C.2       1 MOL     0.0538
      7 N12        71.6751   50.5740    9.3801 N.ar      1 MOL    -0.2334
      8 C13        70.8373   50.7265   10.4278 C.ar      1 MOL     0.1153
      9 C15        72.1074   49.0938   11.6794 C.ar      1 MOL     0.0138
     10 C14        71.0314   49.9865   11.6016 C.ar      1 MOL     0.0445
     11 N16        69.8097   51.5700   10.3321 N.pl3     1 MOL    -0.3432
     12 C3         73.5634   49.6065    8.3337 C.ar      1 MOL     0.0295
     13 C2         74.6549   48.7353    8.3707 C.ar      1 MOL     0.0108
     14 C1         74.8990   47.9642    9.5082 C.ar      1 MOL    -0.0171
     15 C11        78.1500   46.5701   10.2661 C.2       1 MOL     0.0459
     16 S9         77.6285   45.2850    9.3295 S.3       1 MOL    -0.1054
     17 H161       69.8529   52.3478    9.6893 H         1 MOL     0.1442
     18 H162       68.9877   51.4313   10.9025 H         1 MOL     0.1442
@<TRIPOS>BOND
     1    2    1 ar
     2    1    7 ar
     3    1   12 ar
     4    3    2 ar
     5    2    9 ar
     6   14    3 ar
     7    4    5 1 
     8    4    6 2 
     9    4   14 1 
    10    5   15 2 
    11    6   16 1 
    12    7    8 ar
    13    8   10 ar
    14    8   11 1 
    15    9   10 ar
    16   12   13 ar
    17   13   14 ar
    18   15   16 1 
    19   17   11 1 
    20   18   11 1 
@<TRIPOS>SUBSTRUCTURE
1 MOL         1
@<TRIPOS>MOLECULE
query molecule
   18    20     1     0     0
SMALL
NO_CHARGE

@<TRIPOS>ATOM
      1 C4         72.9157   49.6406    9.4430 C.ar      1 MOL     0.0725
      2 C5         73.1554   48.8828   10.5920 C.ar      1 MOL     0.0009
      3 C6         74.2297   47.9932   10.6232 C.ar      1 MOL     0.0187
      4 C7         76.1534   46.9574    9.5286 C.2       1 MOL    -0.0112
      5 C8         77.3006   47.2773   10.1931 C.2       1 MOL     0.0163
      6 C10        76.1842   45.7341    8.9691 C.2       1 MOL     0.0538
      7 N12        71.8987   50.5165    9.3996 N.ar      1 MOL    -0.2334
      8 C13        71.0756   50.6917   10.4553 C.ar      1 MOL     0.1153
      9 C15        72.3211   49.0347   11.6997 C.ar      1 MOL     0.0138
     10 C14        71.2650   49.9516   11.6298 C.ar      1 MOL     0.0445
     11 N16        70.0667   51.5582   10.3672 N.pl3     1 MOL    -0.3432
     12 C3         73.7534   49.5023    8.3372 C.ar      1 MOL     0.0295
     13 C2         74.8250   48.6064    8.3661 C.ar      1 MOL     0.0108
     14 C1         75.0632   47.8339    9.5038 C.ar      1 MOL    -0.0171
     15 C11        78.3058   46.3877   10.1981 C.2       1 MOL     0.0459
     16 S9         77.7222   45.0847    9.3251 S.3       1 MOL    -0.1054
     17 H161       69.4664   51.7171   11.1639 H         1 MOL     0.1442
     18 H162       69.9023   52.0559    9.5039 H         1 MOL     0.1442
@<TRIPOS>BOND
     1    2    1 ar
     2    1    7 ar
     3    1   12 ar
     4    3    2 ar
     5    2    9 ar
     6   14    3 ar
     7    4    5 1 
     8    4    6 2 
     9    4   14 1 
    10    5   15 2 
    11    6   16 1 
    12    7    8 ar
    13    8   10 ar
    14    8   11 1 
    15    9   10 ar
    16   12   13 ar
    17   13   14 ar
    18   15   16 1 
    19   17   11 1 
    20   18   11 1 
@<TRIPOS>SUBSTRUCTURE
1 MOL         1
@<TRIPOS>MOLECULE
query molecule
   18    20     1     0     0
SMALL
NO_CHARGE

@<TRIPOS>ATOM
      1 C4         78.1975   45.0211    8.8812 C.ar      1 MOL     0.0725
      2 C5         79.5879   44.9552    8.7607 C.ar      1 MOL     0.0009
      3 C6         80.1581   44.3365    7.6478 C.ar      1 MOL     0.0187
      4 C7         79.9098   43.1503    5.5258 C.2       1 MOL    -0.0112
      5 C8         80.0325   41.7946    5.4433 C.2       1 MOL     0.0163
      6 C10        80.3297   43.7924    4.4204 C.2       1 MOL     0.0538
      7 N12        77.6290   45.6293    9.9348 N.ar      1 MOL    -0.2334
      8 C13        78.3751   46.1911   10.9097 C.ar      1 MOL     0.1153
      9 C15        80.3894   45.5208    9.7527 C.ar      1 MOL     0.0138
     10 C14        79.7740   46.1466   10.8437 C.ar      1 MOL     0.0445
     11 N16        77.7735   46.7704   11.9485 N.pl3     1 MOL    -0.3432
     12 C3         77.3912   44.4687    7.8870 C.ar      1 MOL     0.0295
     13 C2         77.9623   43.8430    6.7760 C.ar      1 MOL     0.0108
     14 C1         79.3501   43.7589    6.6545 C.ar      1 MOL    -0.0171
     15 C11        80.5594   41.2671    4.3272 C.2       1 MOL     0.0459
     16 S9         80.8830   42.5851    3.3480 S.3       1 MOL    -0.1054
     17 H161       76.9667   46.3348   12.3722 H         1 MOL     0.1442
     18 H162       78.1243   47.6449   12.3120 H         1 MOL     0.1442
@<TRIPOS>BOND
     1    2    1 ar
     2    1    7 ar
     3    1   12 ar
     4    3    2 ar
     5    2    9 ar
     6   14    3 ar
     7    4    5 1 
     8    4    6 2 
     9    4   14 1 
    10    5   15 2 
    11    6   16 1 
    12    7    8 ar
    13    8   10 ar
    14    8   11 1 
    15    9   10 ar
    16   12   13 ar
    17   13   14 ar
    18   15   16 1 
    19   17   11 1 
    20   18   11 1 
@<TRIPOS>SUBSTRUCTURE
1 MOL         1
@<TRIPOS>MOLECULE
query molecule
   18    20     1     0     0
SMALL
NO_CHARGE

@<TRIPOS>ATOM
      1 C4         78.3195   45.0699    8.9830 C.ar      1 MOL     0.0725
      2 C5         79.6976   44.9412    8.7927 C.ar      1 MOL     0.0009
      3 C6         80.1817   44.2467    7.6837 C.ar      1 MOL     0.0187
      4 C7         79.7718   42.9711    5.6400 C.2       1 MOL    -0.0112
      5 C8         80.4092   43.6294    4.6300 C.2       1 MOL     0.0163
      6 C10        79.7019   41.6410    5.4495 C.2       1 MOL     0.0538
      7 N12        77.8335   45.7509   10.0334 N.ar      1 MOL    -0.2334
      8 C13        78.6530   46.3277   10.9381 C.ar      1 MOL     0.1153
      9 C15        80.5735   45.5202    9.7112 C.ar      1 MOL     0.0138
     10 C14        80.0434   46.2226   10.8005 C.ar      1 MOL     0.0445
     11 N16        78.1321   46.9805   11.9768 N.pl3     1 MOL    -0.3432
     12 C3         77.4392   44.5041    8.0619 C.ar      1 MOL     0.0295
     13 C2         77.9240   43.8027    6.9551 C.ar      1 MOL     0.0108
     14 C1         79.2988   43.6558    6.7647 C.ar      1 MOL    -0.0171
     15 C11        80.8583   42.9162    3.5854 C.2       1 MOL     0.0459
     16 S9         80.4531   41.3335    3.9478 S.3       1 MOL    -0.1054
     17 H161       77.4945   46.5084   12.6019 H         1 MOL     0.1442
     18 H162       78.3749   47.9474   12.1390 H         1 MOL     0.1442
@<TRIPOS>BOND
     1    2    1 ar
     2    1    7 ar
     3    1   12 ar
     4    3    2 ar
     5    2    9 ar
     6   14    3 ar
     7    4    5 1 
     8    4    6 2 
     9    4   14 1 
    10    5   15 2 
    11    6   16 1 
    12    7    8 ar
    13    8   10 ar
    14    8   11 1 
    15    9   10 ar
    16   12   13 ar
    17   13   14 ar
    18   15   16 1 
    19   17   11 1 
    20   18   11 1 
@<TRIPOS>SUBSTRUCTURE
1 MOL         1
@<TRIPOS>MOLECULE
query molecule
   18    20     1     0     0
SMALL
NO_CHARGE

@<TRIPOS>ATOM
      1 C4         66.9003   49.9753    9.9654 C.ar      1 MOL     0.0725
      2 C5         67.0648   49.2694    8.7709 C.ar      1 MOL     0.0009
      3 C6         66.1976   48.2215    8.4607 C.ar      1 MOL     0.0187
      4 C7         64.2851   46.8144    9.0385 C.2       1 MOL    -0.0112
      5 C8         62.9361   46.9839    9.1449 C.2       1 MOL     0.0163
      6 C10        64.6356   45.5997    8.5779 C.2       1 MOL     0.0538
      7 N12        67.7122   50.9995   10.2734 N.ar      1 MOL    -0.2334
      8 C13        68.7112   51.3783    9.4480 C.ar      1 MOL     0.1153
      9 C15        68.0905   49.6306    7.8970 C.ar      1 MOL     0.0138
     10 C14        68.9267   50.6998    8.2412 C.ar      1 MOL     0.0445
     11 N16        69.5069   52.3889    9.7974 N.pl3     1 MOL    -0.3432
     12 C3         65.8694   49.6271   10.8370 C.ar      1 MOL     0.0295
     13 C2         65.0054   48.5732   10.5295 C.ar      1 MOL     0.0108
     14 C1         65.1713   47.8524    9.3459 C.ar      1 MOL    -0.0171
     15 C11        62.1350   45.9579    8.8174 C.2       1 MOL     0.0459
     16 S9         63.1795   44.7428    8.3345 S.3       1 MOL    -0.1054
     17 H161       69.6030   52.6431   10.7702 H         1 MOL     0.1442
     18 H162       70.0139   52.9005    9.0894 H         1 MOL     0.1442
@<TRIPOS>BOND
     1    2    1 ar
     2    1    7 ar
     3    1   12 ar
     4    3    2 ar
     5    2    9 ar
     6   14    3 ar
     7    4    5 1 
     8    4    6 2 
     9    4   14 1 
    10    5   15 2 
    11    6   16 1 
    12    7    8 ar
    13    8   10 ar
    14    8   11 1 
    15    9   10 ar
    16   12   13 ar
    17   13   14 ar
    18   15   16 1 
    19   17   11 1 
    20   18   11 1 
@<TRIPOS>SUBSTRUCTURE
1 MOL         1
@<TRIPOS>MOLECULE
query molecule
   18    20     1     0     0
SMALL
NO_CHARGE

@<TRIPOS>ATOM
      1 C4         66.8124   49.9545    9.9620 C.ar      1 MOL     0.0725
      2 C5         66.9676   49.2200    8.7836 C.ar      1 MOL     0.0009
      3 C6         66.0989   48.1641    8.5062 C.ar      1 MOL     0.0187
      4 C7         64.1929   46.7697    9.1341 C.2       1 MOL    -0.0112
      5 C8         62.9934   47.0032    8.5287 C.2       1 MOL     0.0163
      6 C10        64.4231   45.4666    9.3776 C.2       1 MOL     0.0538
      7 N12        67.6258   50.9866   10.2383 N.ar      1 MOL    -0.2334
      8 C13        68.6174   51.3461    9.3955 C.ar      1 MOL     0.1153
      9 C15        67.9854   49.5609    7.8925 C.ar      1 MOL     0.0138
     10 C14        68.8233   50.6388    8.2037 C.ar      1 MOL     0.0445
     11 N16        69.4149   52.3656    9.7135 N.pl3     1 MOL    -0.3432
     12 C3         65.7894   49.6265   10.8505 C.ar      1 MOL     0.0295
     13 C2         64.9239   48.5648   10.5759 C.ar      1 MOL     0.0108
     14 C1         65.0806   47.8157    9.4088 C.ar      1 MOL    -0.0171
     15 C11        62.1920   45.9572    8.2730 C.2       1 MOL     0.0459
     16 S9         63.0451   44.6262    8.8219 S.3       1 MOL    -0.1054
     17 H161       69.5189   52.6434   10.6790 H         1 MOL     0.1442
     18 H162       69.9153   52.8604    8.9890 H         1 MOL     0.1442
@<TRIPOS>BOND
     1    2    1 ar
     2    1    7 ar
     3    1   12 ar
     4    3    2 ar
     5    2    9 ar
     6   14    3 ar
     7    4    5 1 
     8    4    6 2 
     9    4   14 1 
    10    5   15 2 
    11    6   16 1 
    12    7    8 ar
    13    8   10 ar
    14    8   11 1 
    15    9   10 ar
    16   12   13 ar
    17   13   14 ar
    18   15   16 1 
    19   17   11 1 
    20   18   11 1 
@<TRIPOS>SUBSTRUCTURE
1 MOL         1
@<TRIPOS>MOLECULE
query molecule
   18    20     1     0     0
SMALL
NO_CHARGE

@<TRIPOS>ATOM
      1 C4         75.3091   43.9556    7.0023 C.ar      1 MOL     0.0725
      2 C5         76.1952   43.1281    7.6965 C.ar      1 MOL     0.0009
      3 C6         77.0758   43.6818    8.6264 C.ar      1 MOL     0.0187
      4 C7         77.9641   45.6320    9.8006 C.2       1 MOL    -0.0112
      5 C8         79.3133   45.6391    9.6025 C.2       1 MOL     0.0163
      6 C10        77.5882   46.2488   10.9359 C.2       1 MOL     0.0538
      7 N12        74.4405   43.4401    6.1175 N.ar      1 MOL    -0.2334
      8 C13        74.3954   42.1143    5.8664 C.ar      1 MOL     0.1153
      9 C15        76.1796   41.7537    7.4577 C.ar      1 MOL     0.0138
     10 C14        75.2672   41.2396    6.5281 C.ar      1 MOL     0.0445
     11 N16        73.5307   41.6430    4.9682 N.pl3     1 MOL    -0.3432
     12 C3         75.3115   45.3284    7.2457 C.ar      1 MOL     0.0295
     13 C2         76.1981   45.8836    8.1717 C.ar      1 MOL     0.0108
     14 C1         77.0974   45.0669    8.8589 C.ar      1 MOL    -0.0171
     15 C11        80.0931   46.2131   10.5321 C.2       1 MOL     0.0459
     16 S9         79.0250   46.7800   11.6890 S.3       1 MOL    -0.1054
     17 H161       73.4456   42.0897    4.0663 H         1 MOL     0.1442
     18 H162       72.9606   40.8392    5.1894 H         1 MOL     0.1442
@<TRIPOS>BOND
     1    2    1 ar
     2    1    7 ar
     3    1   12 ar
     4    3    2 ar
     5    2    9 ar
     6   14    3 ar
     7    4    5 1 
     8    4    6 2 
     9    4   14 1 
    10    5   15 2 
    11    6   16 1 
    12    7    8 ar
    13    8   10 ar
    14    8   11 1 
    15    9   10 ar
    16   12   13 ar
    17   13   14 ar
    18   15   16 1 
    19   17   11 1 
    20   18   11 1 
@<TRIPOS>SUBSTRUCTURE
1 MOL         1
@<TRIPOS>MOLECULE
query molecule
   18    20     1     0     0
SMALL
NO_CHARGE

@<TRIPOS>ATOM
      1 C4         76.2120   43.8930    6.7706 C.ar      1 MOL     0.0725
      2 C5         77.0510   43.0182    7.4653 C.ar      1 MOL     0.0009
      3 C6         77.8767   43.5079    8.4776 C.ar      1 MOL     0.0187
      4 C7         78.7019   45.3770    9.8182 C.2       1 MOL    -0.0112
      5 C8         79.9847   45.7699    9.5736 C.2       1 MOL     0.0163
      6 C10        78.3197   45.5671   11.0942 C.2       1 MOL     0.0538
      7 N12        75.3956   43.4386    5.8061 N.ar      1 MOL    -0.2334
      8 C13        75.3596   42.1307    5.4733 C.ar      1 MOL     0.1153
      9 C15        77.0433   41.6607    7.1436 C.ar      1 MOL     0.0138
     10 C14        76.1861   41.2107    6.1319 C.ar      1 MOL     0.0445
     11 N16        74.5482   41.7211    4.4984 N.pl3     1 MOL    -0.3432
     12 C3         76.2061   45.2487    7.0959 C.ar      1 MOL     0.0295
     13 C2         77.0380   45.7402    8.1050 C.ar      1 MOL     0.0108
     14 C1         77.8907   44.8764    8.7941 C.ar      1 MOL    -0.0171
     15 C11        80.7084   46.2603   10.5921 C.2       1 MOL     0.0459
     16 S9         79.6700   46.2263   11.9041 S.3       1 MOL    -0.1054
     17 H161       74.4826   40.7382    4.2754 H         1 MOL     0.1442
     18 H162       73.9990   42.3936    3.9825 H         1 MOL     0.1442
@<TRIPOS>BOND
     1    2    1 ar
     2    1    7 ar
     3    1   12 ar
     4    3    2 ar
     5    2    9 ar
     6   14    3 ar
     7    4    5 1 
     8    4    6 2 
     9    4   14 1 
    10    5   15 2 
    11    6   16 1 
    12    7    8 ar
    13    8   10 ar
    14    8   11 1 
    15    9   10 ar
    16   12   13 ar
    17   13   14 ar
    18   15   16 1 
    19   17   11 1 
    20   18   11 1 
@<TRIPOS>SUBSTRUCTURE
1 MOL         1
@<TRIPOS>MOLECULE
query molecule
   18    20     1     0     0
SMALL
NO_CHARGE

@<TRIPOS>ATOM
      1 C4         64.6338   47.2326   16.0129 C.ar      1 MOL     0.0725
      2 C5         63.9160   48.0688   15.1541 C.ar      1 MOL     0.0009
      3 C6         63.5356   49.3406   15.5835 C.ar      1 MOL     0.0187
      4 C7         63.4864   51.0636   17.3156 C.2       1 MOL    -0.0112
      5 C8         62.1857   51.3778   17.5785 C.2       1 MOL     0.0163
      6 C10        64.3399   52.0740   17.5627 C.2       1 MOL     0.0538
      7 N12        65.0261   46.0126   15.6120 N.ar      1 MOL    -0.2334
      8 C13        64.7396   45.5524   14.3755 C.ar      1 MOL     0.1153
      9 C15        63.5982   47.6232   13.8709 C.ar      1 MOL     0.0138
     10 C14        64.0149   46.3459   13.4764 C.ar      1 MOL     0.0445
     11 N16        65.1314   44.3288   14.0208 N.pl3     1 MOL    -0.3432
     12 C3         64.9652   47.6770   17.2922 C.ar      1 MOL     0.0295
     13 C2         64.5783   48.9479   17.7245 C.ar      1 MOL     0.0108
     14 C1         63.8478   49.7844   16.8792 C.ar      1 MOL    -0.0171
     15 C11        61.9023   52.6157   18.0132 C.2       1 MOL     0.0459
     16 S9         63.3866   53.3836   18.1013 S.3       1 MOL    -0.1054
     17 H161       64.4455   43.6034   13.8678 H         1 MOL     0.1442
     18 H162       66.1142   44.1269   13.9051 H         1 MOL     0.1442
@<TRIPOS>BOND
     1    2    1 ar
     2    1    7 ar
     3    1   12 ar
     4    3    2 ar
     5    2    9 ar
     6   14    3 ar
     7    4    5 1 
     8    4    6 2 
     9    4   14 1 
    10    5   15 2 
    11    6   16 1 
    12    7    8 ar
    13    8   10 ar
    14    8   11 1 
    15    9   10 ar
    16   12   13 ar
    17   13   14 ar
    18   15   16 1 
    19   17   11 1 
    20   18   11 1 
@<TRIPOS>SUBSTRUCTURE
1 MOL         1
@<TRIPOS>MOLECULE
query molecule
   18    20     1     0     0
SMALL
NO_CHARGE

@<TRIPOS>ATOM
      1 C4         64.8903   47.0794   16.0443 C.ar      1 MOL     0.0725
      2 C5         64.1758   47.9907   15.2628 C.ar      1 MOL     0.0009
      3 C6         63.8908   49.2604   15.7659 C.ar      1 MOL     0.0187
      4 C7         64.0305   50.9037   17.5691 C.2       1 MOL    -0.0112
      5 C8         63.4961   51.0695   18.8127 C.2       1 MOL     0.0163
      6 C10        64.3009   52.0649   16.9453 C.2       1 MOL     0.0538
      7 N12        65.1916   45.8593   15.5712 N.ar      1 MOL    -0.2334
      8 C13        64.8144   45.4715   14.3342 C.ar      1 MOL     0.1153
      9 C15        63.7656   47.6212   13.9816 C.ar      1 MOL     0.0138
     10 C14        64.0884   46.3425   13.5110 C.ar      1 MOL     0.0445
     11 N16        65.1175   44.2459   13.9070 N.pl3     1 MOL    -0.3432
     12 C3         65.3138   47.4472   17.3207 C.ar      1 MOL     0.0295
     13 C2         65.0223   48.7162   17.8271 C.ar      1 MOL     0.0108
     14 C1         64.2959   49.6280   17.0597 C.ar      1 MOL    -0.0171
     15 C11        63.2818   52.3185   19.2552 C.2       1 MOL     0.0459
     16 S9         63.8170   53.3050   18.0139 S.3       1 MOL    -0.1054
     17 H161       65.9484   44.0953   13.3529 H         1 MOL     0.1442
     18 H162       64.5164   43.4677   14.1375 H         1 MOL     0.1442
@<TRIPOS>BOND
     1    2    1 ar
     2    1    7 ar
     3    1   12 ar
     4    3    2 ar
     5    2    9 ar
     6   14    3 ar
     7    4    5 1 
     8    4    6 2 
     9    4   14 1 
    10    5   15 2 
    11    6   16 1 
    12    7    8 ar
    13    8   10 ar
    14    8   11 1 
    15    9   10 ar
    16   12   13 ar
    17   13   14 ar
    18   15   16 1 
    19   17   11 1 
    20   18   11 1 
@<TRIPOS>SUBSTRUCTURE
1 MOL         1
@<TRIPOS>MOLECULE
query molecule
   18    20     1     0     0
SMALL
NO_CHARGE

@<TRIPOS>ATOM
      1 C4         71.7198   49.1152    9.2670 C.ar      1 MOL     0.0725
      2 C5         71.8089   50.3993    8.7238 C.ar      1 MOL     0.0009
      3 C6         70.8678   51.3672    9.0761 C.ar      1 MOL     0.0187
      4 C7         68.8767   52.0267   10.3298 C.2       1 MOL    -0.0112
      5 C8         67.9402   51.7668   11.2864 C.2       1 MOL     0.0163
      6 C10        68.8152   53.2823    9.8500 C.2       1 MOL     0.0538
      7 N12        72.6267   48.1751    8.9558 N.ar      1 MOL    -0.2334
      8 C13        73.6470   48.4342    8.1104 C.ar      1 MOL     0.1153
      9 C15        72.8477   50.7002    7.8425 C.ar      1 MOL     0.0138
     10 C14        73.7794   49.7026    7.5302 C.ar      1 MOL     0.0445
     11 N16        74.5170   47.4693    7.8127 N.pl3     1 MOL    -0.3432
     12 C3         70.6912   48.8120   10.1579 C.ar      1 MOL     0.0295
     13 C2         69.7448   49.7793   10.5053 C.ar      1 MOL     0.0108
     14 C1         69.8168   51.0603    9.9560 C.ar      1 MOL    -0.0171
     15 C11        67.0768   52.7399   11.6170 C.2       1 MOL     0.0459
     16 S9         67.5194   54.0409   10.6620 S.3       1 MOL    -0.1054
     17 H161       74.2024   46.6335    7.3409 H         1 MOL     0.1442
     18 H162       75.4909   47.5740    8.0589 H         1 MOL     0.1442
@<TRIPOS>BOND
     1    2    1 ar
     2    1    7 ar
     3    1   12 ar
     4    3    2 ar
     5    2    9 ar
     6   14    3 ar
     7    4    5 1 
     8    4    6 2 
     9    4   14 1 
    10    5   15 2 
    11    6   16 1 
    12    7    8 ar
    13    8   10 ar
    14    8   11 1 
    15    9   10 ar
    16   12   13 ar
    17   13   14 ar
    18   15   16 1 
    19   17   11 1 
    20   18   11 1 
@<TRIPOS>SUBSTRUCTURE
1 MOL         1
@<TRIPOS>MOLECULE
query molecule
   18    20     1     0     0
SMALL
NO_CHARGE

@<TRIPOS>ATOM
      1 C4         72.5429   48.9065    9.1712 C.ar      1 MOL     0.0725
      2 C5         72.5754   50.1876    8.6145 C.ar      1 MOL     0.0009
      3 C6         71.5474   51.0893    8.8914 C.ar      1 MOL     0.0187
      4 C7         69.4382   51.6182   10.0063 C.2       1 MOL    -0.0112
      5 C8         68.3307   51.2209   10.6957 C.2       1 MOL     0.0163
      6 C10        69.4383   52.9300    9.7068 C.2       1 MOL     0.0538
      7 N12        73.5323   48.0305    8.9327 N.ar      1 MOL    -0.2334
      8 C13        74.5837   48.3526    8.1495 C.ar      1 MOL     0.1153
      9 C15        73.6445   50.5523    7.7958 C.ar      1 MOL     0.0138
     10 C14        74.6628   49.6207    7.5588 C.ar      1 MOL     0.0445
     11 N16        75.5373   47.4494    7.9226 N.pl3     1 MOL    -0.3432
     12 C3         71.4834   48.5403   10.0001 C.ar      1 MOL     0.0295
     13 C2         70.4505   49.4410   10.2717 C.ar      1 MOL     0.0108
     14 C1         70.4665   50.7177    9.7079 C.ar      1 MOL    -0.0171
     15 C11        67.3862   52.1345   10.9696 C.2       1 MOL     0.0459
     16 S9         67.9772   53.5609   10.3240 S.3       1 MOL    -0.1054
     17 H161       75.4088   46.7483    7.2071 H         1 MOL     0.1442
     18 H162       76.3884   47.4662    8.4661 H         1 MOL     0.1442
@<TRIPOS>BOND
     1    2    1 ar
     2    1    7 ar
     3    1   12 ar
     4    3    2 ar
     5    2    9 ar
     6   14    3 ar
     7    4    5 1 
     8    4    6 2 
     9    4   14 1 
    10    5   15 2 
    11    6   16 1 
    12    7    8 ar
    13    8   10 ar
    14    8   11 1 
    15    9   10 ar
    16   12   13 ar
    17   13   14 ar
    18   15   16 1 
    19   17   11 1 
    20   18   11 1 
@<TRIPOS>SUBSTRUCTURE
1 MOL         1
@<TRIPOS>MOLECULE
query molecule
   18    20     1     0     0
SMALL
NO_CHARGE

@<TRIPOS>ATOM
      1 C4         69.0809   47.7710    8.3216 C.ar      1 MOL     0.0725
      2 C5         68.4597   47.1740    7.2218 C.ar      1 MOL     0.0009
      3 C6         68.7360   45.8428    6.9086 C.ar      1 MOL     0.0187
      4 C7         69.9220   43.7590    7.3804 C.2       1 MOL    -0.0112
      5 C8         69.1737   42.7529    7.9165 C.2       1 MOL     0.0163
      6 C10        70.8768   43.3234    6.5382 C.2       1 MOL     0.0538
      7 N12        68.8138   49.0451    8.6513 N.ar      1 MOL    -0.2334
      8 C13        67.9450   49.7899    7.9350 C.ar      1 MOL     0.1153
      9 C15        67.5602   47.9162    6.4561 C.ar      1 MOL     0.0138
     10 C14        67.3001   49.2439    6.8173 C.ar      1 MOL     0.0445
     11 N16        67.7195   51.0564    8.2838 N.pl3     1 MOL    -0.3432
     12 C3         69.9713   47.0307    9.0980 C.ar      1 MOL     0.0295
     13 C2         70.2533   45.6998    8.7801 C.ar      1 MOL     0.0108
     14 C1         69.6492   45.0993    7.6744 C.ar      1 MOL    -0.0171
     15 C11        69.4707   41.4873    7.5822 C.2       1 MOL     0.0459
     16 S9         70.7542   41.6210    6.5167 S.3       1 MOL    -0.1054
     17 H161       68.4055   51.5602    8.8275 H         1 MOL     0.1442
     18 H162       66.8626   51.5122    8.0044 H         1 MOL     0.1442
@<TRIPOS>BOND
     1    2    1 ar
     2    1    7 ar
     3    1   12 ar
     4    3    2 ar
     5    2    9 ar
     6   14    3 ar
     7    4    5 1 
     8    4    6 2 
     9    4   14 1 
    10    5   15 2 
    11    6   16 1 
    12    7    8 ar
    13    8   10 ar
    14    8   11 1 
    15    9   10 ar
    16   12   13 ar
    17   13   14 ar
    18   15   16 1 
    19   17   11 1 
    20   18   11 1 
@<TRIPOS>SUBSTRUCTURE
1 MOL         1
@<TRIPOS>MOLECULE
query molecule
   18    20     1     0     0
SMALL
NO_CHARGE

@<TRIPOS>ATOM
      1 C4         68.9252   47.8803    8.3650 C.ar      1 MOL     0.0725
      2 C5         68.2758   47.2231    7.3170 C.ar      1 MOL     0.0009
      3 C6         68.5769   45.8885    7.0439 C.ar      1 MOL     0.0187
      4 C7         69.8414   43.8582    7.5445 C.2       1 MOL    -0.0112
      5 C8         69.0887   42.8550    8.0802 C.2       1 MOL     0.0163
      6 C10        70.8280   43.4158    6.7436 C.2       1 MOL     0.0538
      7 N12        68.6356   49.1587    8.6563 N.ar      1 MOL    -0.2334
      8 C13        67.7163   49.8505    7.9498 C.ar      1 MOL     0.1153
      9 C15        67.3238   47.9095    6.5627 C.ar      1 MOL     0.0138
     10 C14        67.0410   49.2431    6.8830 C.ar      1 MOL     0.0445
     11 N16        67.4692   51.1233    8.2588 N.pl3     1 MOL    -0.3432
     12 C3         69.8685   47.1960    9.1303 C.ar      1 MOL     0.0295
     13 C2         70.1750   45.8616    8.8524 C.ar      1 MOL     0.0108
     14 C1         69.5426   45.2013    7.7979 C.ar      1 MOL    -0.0171
     15 C11        69.4120   41.5860    7.7855 C.2       1 MOL     0.0459
     16 S9         70.7273   41.7118    6.7585 S.3       1 MOL    -0.1054
     17 H161       68.1504   51.8370    8.0421 H         1 MOL     0.1442
     18 H162       66.6009   51.3742    8.7095 H         1 MOL     0.1442
@<TRIPOS>BOND
     1    2    1 ar
     2    1    7 ar
     3    1   12 ar
     4    3    2 ar
     5    2    9 ar
     6   14    3 ar
     7    4    5 1 
     8    4    6 2 
     9    4   14 1 
    10    5   15 2 
    11    6   16 1 
    12    7    8 ar
    13    8   10 ar
    14    8   11 1 
    15    9   10 ar
    16   12   13 ar
    17   13   14 ar
    18   15   16 1 
    19   17   11 1 
    20   18   11 1 
@<TRIPOS>SUBSTRUCTURE
1 MOL         1
@<TRIPOS>MOLECULE
query molecule
   18    20     1     0     0
SMALL
NO_CHARGE

@<TRIPOS>ATOM
      1 C4         66.7900   45.8246    8.2285 C.ar      1 MOL     0.0725
      2 C5         67.4575   46.9897    8.6144 C.ar      1 MOL     0.0009
      3 C6         66.7474   48.0259    9.2216 C.ar      1 MOL     0.0187
      4 C7         64.6424   48.9461   10.0544 C.2       1 MOL    -0.0112
      5 C8         64.0683   48.7623   11.2776 C.2       1 MOL     0.0163
      6 C10        64.4775   50.1902    9.5690 C.2       1 MOL     0.0538
      7 N12        67.4586   44.8081    7.6603 N.ar      1 MOL    -0.2334
      8 C13        68.7888   44.8768    7.4398 C.ar      1 MOL     0.1153
      9 C15        68.8313   47.0968    8.3966 C.ar      1 MOL     0.0138
     10 C14        69.5065   46.0252    7.7994 C.ar      1 MOL     0.0445
     11 N16        69.4137   43.8536    6.8575 N.pl3     1 MOL    -0.3432
     12 C3         65.4194   45.7067    8.4548 C.ar      1 MOL     0.0295
     13 C2         64.7072   46.7472    9.0565 C.ar      1 MOL     0.0108
     14 C1         65.3625   47.9210    9.4316 C.ar      1 MOL    -0.0171
     15 C11        63.4063   49.7889   11.8340 C.2       1 MOL     0.0459
     16 S9         63.5598   51.0387   10.7317 S.3       1 MOL    -0.1054
     17 H161       70.3066   43.9971    6.4077 H         1 MOL     0.1442
     18 H162       68.9944   42.9348    6.8659 H         1 MOL     0.1442
@<TRIPOS>BOND
     1    2    1 ar
     2    1    7 ar
     3    1   12 ar
     4    3    2 ar
     5    2    9 ar
     6   14    3 ar
     7    4    5 1 
     8    4    6 2 
     9    4   14 1 
    10    5   15 2 
    11    6   16 1 
    12    7    8 ar
    13    8   10 ar
    14    8   11 1 
    15    9   10 ar
    16   12   13 ar
    17   13   14 ar
    18   15   16 1 
    19   17   11 1 
    20   18   11 1 
@<TRIPOS>SUBSTRUCTURE
1 MOL         1
@<TRIPOS>MOLECULE
query molecule
   18    20     1     0     0
SMALL
NO_CHARGE

@<TRIPOS>ATOM
      1 C4         67.1199   46.5564    7.9262 C.ar      1 MOL     0.0725
      2 C5         67.8401   47.7084    8.2518 C.ar      1 MOL     0.0009
      3 C6         67.1857   48.7912    8.8399 C.ar      1 MOL     0.0187
      4 C7         65.1399   49.8184    9.6948 C.2       1 MOL    -0.0112
      5 C8         63.7782   49.8614    9.7544 C.2       1 MOL     0.0163
      6 C10        65.7338   50.8618   10.3025 C.2       1 MOL     0.0538
      7 N12        67.7347   45.4961    7.3774 N.ar      1 MOL    -0.2334
      8 C13        69.0598   45.5071    7.1191 C.ar      1 MOL     0.1153
      9 C15        69.2103   47.7561    7.9937 C.ar      1 MOL     0.0138
     10 C14        69.8288   46.6396    7.4177 C.ar      1 MOL     0.0445
     11 N16        69.6303   44.4414    6.5576 N.pl3     1 MOL    -0.3432
     12 C3         65.7528   46.4980    8.1931 C.ar      1 MOL     0.0295
     13 C2         65.0963   47.5849    8.7757 C.ar      1 MOL     0.0108
     14 C1         65.8043   48.7457    9.0904 C.ar      1 MOL    -0.0171
     15 C11        63.1975   50.9067   10.3642 C.2       1 MOL     0.0459
     16 S9         64.4741   51.8499   10.8946 S.3       1 MOL    -0.1054
     17 H161       69.2768   43.5162    6.7556 H         1 MOL     0.1442
     18 H162       70.4161   44.5589    5.9341 H         1 MOL     0.1442
@<TRIPOS>BOND
     1    2    1 ar
     2    1    7 ar
     3    1   12 ar
     4    3    2 ar
     5    2    9 ar
     6   14    3 ar
     7    4    5 1 
     8    4    6 2 
     9    4   14 1 
    10    5   15 2 
    11    6   16 1 
    12    7    8 ar
    13    8   10 ar
    14    8   11 1 
    15    9   10 ar
    16   12   13 ar
    17   13   14 ar
    18   15   16 1 
    19   17   11 1 
    20   18   11 1 
@<TRIPOS>SUBSTRUCTURE
1 MOL         1
@<TRIPOS>MOLECULE
query molecule
   18    20     1     0     0
SMALL
NO_CHARGE

@<TRIPOS>ATOM
      1 C4         61.8611   46.1584   13.6531 C.ar      1 MOL     0.0725
      2 C5         60.9446   46.1099   12.5997 C.ar      1 MOL     0.0009
      3 C6         61.3895   46.2678   11.2868 C.ar      1 MOL     0.0187
      4 C7         63.2086   46.6399    9.6981 C.2       1 MOL    -0.0112
      5 C8         63.2327   45.5807    8.8395 C.2       1 MOL     0.0163
      6 C10        63.6181   47.7919    9.1361 C.2       1 MOL     0.0538
      7 N12        61.4560   45.9893   14.9222 N.ar      1 MOL    -0.2334
      8 C13        60.1580   45.7720   15.2233 C.ar      1 MOL     0.1153
      9 C15        59.5944   45.8923   12.8753 C.ar      1 MOL     0.0138
     10 C14        59.1952   45.7223   14.2066 C.ar      1 MOL     0.0445
     11 N16        59.7927   45.6262   16.4969 N.pl3     1 MOL    -0.3432
     12 C3         63.2135   46.3631   13.3831 C.ar      1 MOL     0.0295
     13 C2         63.6579   46.5282   12.0690 C.ar      1 MOL     0.0108
     14 C1         62.7478   46.4965   11.0113 C.ar      1 MOL    -0.0171
     15 C11        63.6671   45.7837    7.5858 C.2       1 MOL     0.0459
     16 S9         64.0337   47.4154    7.5238 S.3       1 MOL    -0.1054
     17 H161       59.0331   46.1771   16.8706 H         1 MOL     0.1442
     18 H162       60.2755   44.9650   17.0882 H         1 MOL     0.1442
@<TRIPOS>BOND
     1    2    1 ar
     2    1    7 ar
     3    1   12 ar
     4    3    2 ar
     5    2    9 ar
     6   14    3 ar
     7    4    5 1 
     8    4    6 2 
     9    4   14 1 
    10    5   15 2 
    11    6   16 1 
    12    7    8 ar
    13    8   10 ar
    14    8   11 1 
    15    9   10 ar
    16   12   13 ar
    17   13   14 ar
    18   15   16 1 
    19   17   11 1 
    20   18   11 1 
@<TRIPOS>SUBSTRUCTURE
1 MOL         1
@<TRIPOS>MOLECULE
query molecule
   18    20     1     0     0
SMALL
NO_CHARGE

@<TRIPOS>ATOM
      1 C4         61.8611   46.1584   13.6531 C.ar      1 MOL     0.0725
      2 C5         60.9446   46.1099   12.5997 C.ar      1 MOL     0.0009
      3 C6         61.3895   46.2678   11.2868 C.ar      1 MOL     0.0187
      4 C7         63.2086   46.6399    9.6981 C.2       1 MOL    -0.0112
      5 C8         63.2327   45.5807    8.8395 C.2       1 MOL     0.0163
      6 C10        63.6181   47.7919    9.1361 C.2       1 MOL     0.0538
      7 N12        61.4560   45.9893   14.9222 N.ar      1 MOL    -0.2334
      8 C13        60.1580   45.7720   15.2233 C.ar      1 MOL     0.1153
      9 C15        59.5944   45.8923   12.8753 C.ar      1 MOL     0.0138
     10 C14        59.1952   45.7223   14.2066 C.ar      1 MOL     0.0445
     11 N16        59.7927   45.6262   16.4969 N.pl3     1 MOL    -0.3432
     12 C3         63.2135   46.3631   13.3831 C.ar      1 MOL     0.0295
     13 C2         63.6579   46.5282   12.0690 C.ar      1 MOL     0.0108
     14 C1         62.7478   46.4965   11.0113 C.ar      1 MOL    -0.0171
     15 C11        63.6671   45.7837    7.5858 C.2       1 MOL     0.0459
     16 S9         64.0337   47.4154    7.5238 S.3       1 MOL    -0.1054
     17 H161       59.3562   46.3933   16.9880 H         1 MOL     0.1442
     18 H162       59.9523   44.7488   16.9708 H         1 MOL     0.1442
@<TRIPOS>BOND
     1    2    1 ar
     2    1    7 ar
     3    1   12 ar
     4    3    2 ar
     5    2    9 ar
     6   14    3 ar
     7    4    5 1 
     8    4    6 2 
     9    4   14 1 
    10    5   15 2 
    11    6   16 1 
    12    7    8 ar
    13    8   10 ar
    14    8   11 1 
    15    9   10 ar
    16   12   13 ar
    17   13   14 ar
    18   15   16 1 
    19   17   11 1 
    20   18   11 1 
@<TRIPOS>SUBSTRUCTURE
1 MOL         1
@<TRIPOS>MOLECULE
query molecule
   18    20     1     0     0
SMALL
NO_CHARGE

@<TRIPOS>ATOM
      1 C4         69.9613   41.3919    8.0334 C.ar      1 MOL     0.0725
      2 C5         71.2713   41.4045    8.5188 C.ar      1 MOL     0.0009
      3 C6         72.3302   41.1016    7.6624 C.ar      1 MOL     0.0187
      4 C7         73.1484   40.4731    5.4472 C.2       1 MOL    -0.0112
      5 C8         74.0434   41.4339    5.0793 C.2       1 MOL     0.0163
      6 C10        73.4223   39.2620    4.9288 C.2       1 MOL     0.0538
      7 N12        68.9299   41.6994    8.8364 N.ar      1 MOL    -0.2334
      8 C13        69.1203   42.0255   10.1326 C.ar      1 MOL     0.1153
      9 C15        71.5041   41.7319    9.8548 C.ar      1 MOL     0.0138
     10 C14        70.4125   42.0457   10.6739 C.ar      1 MOL     0.0445
     11 N16        68.0693   42.3077   10.9021 N.pl3     1 MOL    -0.3432
     12 C3         69.7233   41.0776    6.6961 C.ar      1 MOL     0.0295
     13 C2         70.7831   40.7674    5.8403 C.ar      1 MOL     0.0108
     14 C1         72.0938   40.7626    6.3199 C.ar      1 MOL    -0.0171
     15 C11        75.0457   41.0919    4.2546 C.2       1 MOL     0.0459
     16 S9         74.8214   39.4579    3.9708 S.3       1 MOL    -0.1054
     17 H161       67.6774   43.2386   10.9003 H         1 MOL     0.1442
     18 H162       67.6646   41.5906   11.4870 H         1 MOL     0.1442
@<TRIPOS>BOND
     1    2    1 ar
     2    1    7 ar
     3    1   12 ar
     4    3    2 ar
     5    2    9 ar
     6   14    3 ar
     7    4    5 1 
     8    4    6 2 
     9    4   14 1 
    10    5   15 2 
    11    6   16 1 
    12    7    8 ar
    13    8   10 ar
    14    8   11 1 
    15    9   10 ar
    16   12   13 ar
    17   13   14 ar
    18   15   16 1 
    19   17   11 1 
    20   18   11 1 
@<TRIPOS>SUBSTRUCTURE
1 MOL         1
@<TRIPOS>MOLECULE
query molecule
   18    20     1     0     0
SMALL
NO_CHARGE

@<TRIPOS>ATOM
      1 C4         70.0441   41.3350    8.4362 C.ar      1 MOL     0.0725
      2 C5         71.3736   41.2206    8.8502 C.ar      1 MOL     0.0009
      3 C6         72.3619   40.8905    7.9224 C.ar      1 MOL     0.0187
      4 C7         73.0176   40.3353    5.6348 C.2       1 MOL    -0.0112
      5 C8         74.0491   41.1899    5.3790 C.2       1 MOL     0.0163
      6 C10        73.0895   39.1879    4.9356 C.2       1 MOL     0.0538
      7 N12        69.0809   41.6707    9.3096 N.ar      1 MOL    -0.2334
      8 C13        69.3603   41.9040   10.6097 C.ar      1 MOL     0.1153
      9 C15        71.6971   41.4496   10.1878 C.ar      1 MOL     0.0138
     10 C14        70.6753   41.7950   11.0808 C.ar      1 MOL     0.0445
     11 N16        68.3739   42.2179   11.4494 N.pl3     1 MOL    -0.3432
     12 C3         69.7163   41.1195    7.0984 C.ar      1 MOL     0.0295
     13 C2         70.7050   40.7822    6.1708 C.ar      1 MOL     0.0108
     14 C1         72.0335   40.6506    6.5778 C.ar      1 MOL    -0.0171
     15 C11        74.9740   40.8242    4.4776 C.2       1 MOL     0.0459
     16 S9         74.4898   39.3060    3.9666 S.3       1 MOL    -0.1054
     17 H161       68.0562   43.1741   11.5204 H         1 MOL     0.1442
     18 H162       67.9440   41.4997   12.0146 H         1 MOL     0.1442
@<TRIPOS>BOND
     1    2    1 ar
     2    1    7 ar
     3    1   12 ar
     4    3    2 ar
     5    2    9 ar
     6   14    3 ar
     7    4    5 1 
     8    4    6 2 
     9    4   14 1 
    10    5   15 2 
    11    6   16 1 
    12    7    8 ar
    13    8   10 ar
    14    8   11 1 
    15    9   10 ar
    16   12   13 ar
    17   13   14 ar
    18   15   16 1 
    19   17   11 1 
    20   18   11 1 
@<TRIPOS>SUBSTRUCTURE
1 MOL         1
@<TRIPOS>MOLECULE
query molecule
   18    20     1     0     0
SMALL
NO_CHARGE

@<TRIPOS>ATOM
      1 C4         72.7162   46.1579    6.3685 C.ar      1 MOL     0.0725
      2 C5         73.1609   47.4819    6.4018 C.ar      1 MOL     0.0009
      3 C6         72.9266   48.2630    7.5338 C.ar      1 MOL     0.0187
      4 C7         72.0023   48.5083    9.7825 C.2       1 MOL    -0.0112
      5 C8         72.9784   48.6828   10.7188 C.2       1 MOL     0.0163
      6 C10        70.8674   49.1740   10.0645 C.2       1 MOL     0.0538
      7 N12        72.9487   45.3836    5.2963 N.ar      1 MOL    -0.2334
      8 C13        73.6121   45.8547    4.2189 C.ar      1 MOL     0.1153
      9 C15        73.8452   48.0030    5.3033 C.ar      1 MOL     0.0138
     10 C14        74.0729   47.1776    4.1952 C.ar      1 MOL     0.0445
     11 N16        73.8080   45.0602    3.1667 N.pl3     1 MOL    -0.3432
     12 C3         72.0427   45.6277    7.4681 C.ar      1 MOL     0.0295
     13 C2         71.8020   46.4121    8.5988 C.ar      1 MOL     0.0108
     14 C1         72.2290   47.7403    8.6353 C.ar      1 MOL    -0.0171
     15 C11        72.7085   49.4463   11.7892 C.2       1 MOL     0.0459
     16 S9         71.1368   49.9692   11.5507 S.3       1 MOL    -0.1054
     17 H161       74.7447   44.7815    2.9119 H         1 MOL     0.1442
     18 H162       73.0198   44.7369    2.6243 H         1 MOL     0.1442
@<TRIPOS>BOND
     1    2    1 ar
     2    1    7 ar
     3    1   12 ar
     4    3    2 ar
     5    2    9 ar
     6   14    3 ar
     7    4    5 1 
     8    4    6 2 
     9    4   14 1 
    10    5   15 2 
    11    6   16 1 
    12    7    8 ar
    13    8   10 ar
    14    8   11 1 
    15    9   10 ar
    16   12   13 ar
    17   13   14 ar
    18   15   16 1 
    19   17   11 1 
    20   18   11 1 
@<TRIPOS>SUBSTRUCTURE
1 MOL         1
@<TRIPOS>MOLECULE
query molecule
   18    20     1     0     0
SMALL
NO_CHARGE

@<TRIPOS>ATOM
      1 C4         72.6947   46.1958    6.9744 C.ar      1 MOL     0.0725
      2 C5         73.1638   47.5111    7.0161 C.ar      1 MOL     0.0009
      3 C6         72.9942   48.2706    8.1740 C.ar      1 MOL     0.0187
      4 C7         72.1759   48.4811   10.4670 C.2       1 MOL    -0.0112
      5 C8         72.9825   48.2794   11.5479 C.2       1 MOL     0.0163
      6 C10        71.2821   49.4709   10.6454 C.2       1 MOL     0.0538
      7 N12        72.8653   45.4418    5.8764 N.ar      1 MOL    -0.2334
      8 C13        73.4880   45.9257    4.7805 C.ar      1 MOL     0.1153
      9 C15        73.8074   48.0450    5.8993 C.ar      1 MOL     0.0138
     10 C14        73.9706   47.2409    4.7646 C.ar      1 MOL     0.0445
     11 N16        73.6225   45.1517    3.7037 N.pl3     1 MOL    -0.3432
     12 C3         72.0618   45.6525    8.0916 C.ar      1 MOL     0.0295
     13 C2         71.8858   46.4154    9.2487 C.ar      1 MOL     0.0108
     14 C1         72.3374   47.7352    9.2944 C.ar      1 MOL    -0.0171
     15 C11        72.7924   49.0390   12.6381 C.2       1 MOL     0.0459
     16 S9         71.5342   50.0627   12.2266 S.3       1 MOL    -0.1054
     17 H161       72.9323   44.4423    3.5022 H         1 MOL     0.1442
     18 H162       74.4146   45.2746    3.0892 H         1 MOL     0.1442
@<TRIPOS>BOND
     1    2    1 ar
     2    1    7 ar
     3    1   12 ar
     4    3    2 ar
     5    2    9 ar
     6   14    3 ar
     7    4    5 1 
     8    4    6 2 
     9    4   14 1 
    10    5   15 2 
    11    6   16 1 
    12    7    8 ar
    13    8   10 ar
    14    8   11 1 
    15    9   10 ar
    16   12   13 ar
    17   13   14 ar
    18   15   16 1 
    19   17   11 1 
    20   18   11 1 
@<TRIPOS>SUBSTRUCTURE
1 MOL         1
@<TRIPOS>MOLECULE
query molecule
   18    20     1     0     0
SMALL
NO_CHARGE

@<TRIPOS>ATOM
      1 C4         69.4480   50.9789   12.6740 C.ar      1 MOL     0.0725
      2 C5         68.9634   50.7733   11.3799 C.ar      1 MOL     0.0009
      3 C6         69.8554   50.5102   10.3399 C.ar      1 MOL     0.0187
      4 C7         72.1432   50.1907    9.5429 C.2       1 MOL    -0.0112
      5 C8         73.0144   49.1454    9.6323 C.2       1 MOL     0.0163
      6 C10        72.2258   50.8560    8.3762 C.2       1 MOL     0.0538
      7 N12        68.6047   51.2143   13.6922 N.ar      1 MOL    -0.2334
      8 C13        67.2690   51.2641   13.5023 C.ar      1 MOL     0.1153
      9 C15        67.5888   50.8231   11.1467 C.ar      1 MOL     0.0138
     10 C14        66.7292   51.0734   12.2234 C.ar      1 MOL     0.0445
     11 N16        66.4657   51.5175   14.5353 N.pl3     1 MOL    -0.3432
     12 C3         70.8197   50.9181   12.9156 C.ar      1 MOL     0.0295
     13 C2         71.7134   50.6615   11.8729 C.ar      1 MOL     0.0108
     14 C1         71.2399   50.4700   10.5741 C.ar      1 MOL    -0.0171
     15 C11        73.8442   48.9148    8.6027 C.2       1 MOL     0.0459
     16 S9         73.4559   50.0888    7.4750 S.3       1 MOL    -0.1054
     17 H161       66.5988   51.0301   15.4100 H         1 MOL     0.1442
     18 H162       65.7240   52.1968   14.4436 H         1 MOL     0.1442
@<TRIPOS>BOND
     1    2    1 ar
     2    1    7 ar
     3    1   12 ar
     4    3    2 ar
     5    2    9 ar
     6   14    3 ar
     7    4    5 1 
     8    4    6 2 
     9    4   14 1 
    10    5   15 2 
    11    6   16 1 
    12    7    8 ar
    13    8   10 ar
    14    8   11 1 
    15    9   10 ar
    16   12   13 ar
    17   13   14 ar
    18   15   16 1 
    19   17   11 1 
    20   18   11 1 
@<TRIPOS>SUBSTRUCTURE
1 MOL         1
@<TRIPOS>MOLECULE
query molecule
   18    20     1     0     0
SMALL
NO_CHARGE

@<TRIPOS>ATOM
      1 C4         69.7724   50.8977   12.6073 C.ar      1 MOL     0.0725
      2 C5         69.3677   50.7778   11.2755 C.ar      1 MOL     0.0009
      3 C6         70.3060   50.4620   10.2924 C.ar      1 MOL     0.0187
      4 C7         72.6069   49.9501    9.6481 C.2       1 MOL    -0.0112
      5 C8         73.6410   49.1066    9.9292 C.2       1 MOL     0.0163
      6 C10        72.5873   50.3620    8.3673 C.2       1 MOL     0.0538
      7 N12        68.8816   51.1819   13.5712 N.ar      1 MOL    -0.2334
      8 C13        67.5740   51.3642   13.2892 C.ar      1 MOL     0.1153
      9 C15        68.0247   50.9651   10.9476 C.ar      1 MOL     0.0138
     10 C14        67.1149   51.2640   11.9692 C.ar      1 MOL     0.0445
     11 N16        66.7235   51.6621   14.2713 N.pl3     1 MOL    -0.3432
     12 C3         71.1109   50.6995   12.9431 C.ar      1 MOL     0.0295
     13 C2         72.0516   50.3901   11.9575 C.ar      1 MOL     0.0108
     14 C1         71.6596   50.2833   10.6223 C.ar      1 MOL    -0.0171
     15 C11        74.5075   48.8084    8.9484 C.2       1 MOL     0.0459
     16 S9         73.9376   49.6402    7.6128 S.3       1 MOL    -0.1054
     17 H161       66.1555   52.4952   14.2123 H         1 MOL     0.1442
     18 H162       66.6471   51.0547   15.0747 H         1 MOL     0.1442
@<TRIPOS>BOND
     1    2    1 ar
     2    1    7 ar
     3    1   12 ar
     4    3    2 ar
     5    2    9 ar
     6   14    3 ar
     7    4    5 1 
     8    4    6 2 
     9    4   14 1 
    10    5   15 2 
    11    6   16 1 
    12    7    8 ar
    13    8   10 ar
    14    8   11 1 
    15    9   10 ar
    16   12   13 ar
    17   13   14 ar
    18   15   16 1 
    19   17   11 1 
    20   18   11 1 
@<TRIPOS>SUBSTRUCTURE
1 MOL         1
@<TRIPOS>MOLECULE
query molecule
   18    20     1     0     0
SMALL
NO_CHARGE

@<TRIPOS>ATOM
      1 C4         68.7043   49.0338    7.2802 C.ar      1 MOL     0.0725
      2 C5         69.2075   47.7933    7.6800 C.ar      1 MOL     0.0009
      3 C6         70.5660   47.6569    7.9670 C.ar      1 MOL     0.0187
      4 C7         72.8015   48.6287    8.1395 C.2       1 MOL    -0.0112
      5 C8         73.7520   48.7557    7.1700 C.2       1 MOL     0.0163
      6 C10        73.3148   48.4312    9.3675 C.2       1 MOL     0.0538
      7 N12        67.3966   49.1907    7.0181 N.ar      1 MOL    -0.2334
      8 C13        66.5290   48.1621    7.1270 C.ar      1 MOL     0.1153
      9 C15        68.3398   46.7073    7.7978 C.ar      1 MOL     0.0138
     10 C14        66.9810   46.8942    7.5158 C.ar      1 MOL     0.0445
     11 N16        65.2412   48.3535    6.8412 N.pl3     1 MOL    -0.3432
     12 C3         69.5642   50.1259    7.1726 C.ar      1 MOL     0.0295
     13 C2         70.9258   49.9876    7.4534 C.ar      1 MOL     0.0108
     14 C1         71.4404   48.7488    7.8387 C.ar      1 MOL    -0.0171
     15 C11        75.0429   48.6501    7.5224 C.2       1 MOL     0.0459
     16 S9         75.0108   48.3991    9.1766 S.3       1 MOL    -0.1054
     17 H161       64.6225   48.7459    7.5365 H         1 MOL     0.1442
     18 H162       64.8840   48.1062    5.9294 H         1 MOL     0.1442
@<TRIPOS>BOND
     1    2    1 ar
     2    1    7 ar
     3    1   12 ar
     4    3    2 ar
     5    2    9 ar
     6   14    3 ar
     7    4    5 1 
     8    4    6 2 
     9    4   14 1 
    10    5   15 2 
    11    6   16 1 
    12    7    8 ar
    13    8   10 ar
    14    8   11 1 
    15    9   10 ar
    16   12   13 ar
    17   13   14 ar
    18   15   16 1 
    19   17   11 1 
    20   18   11 1 
@<TRIPOS>SUBSTRUCTURE
1 MOL         1
@<TRIPOS>MOLECULE
query molecule
   18    20     1     0     0
SMALL
NO_CHARGE

@<TRIPOS>ATOM
      1 C4         68.6063   49.2105    7.3433 C.ar      1 MOL     0.0725
      2 C5         69.1814   47.9768    7.6582 C.ar      1 MOL     0.0009
      3 C6         70.5561   47.8899    7.8799 C.ar      1 MOL     0.0187
      4 C7         72.7518   48.9551    8.0061 C.2       1 MOL    -0.0112
      5 C8         73.2409   48.6822    9.2495 C.2       1 MOL     0.0163
      6 C10        73.7118   49.0927    7.0734 C.2       1 MOL     0.0538
      7 N12        67.2826   49.3189    7.1453 N.ar      1 MOL    -0.2334
      8 C13        66.4671   48.2470    7.2388 C.ar      1 MOL     0.1153
      9 C15        68.3688   46.8471    7.7577 C.ar      1 MOL     0.0138
     10 C14        66.9918   46.9841    7.5436 C.ar      1 MOL     0.0445
     11 N16        65.1606   48.3920    7.0181 N.pl3     1 MOL    -0.3432
     12 C3         69.4113   50.3453    7.2546 C.ar      1 MOL     0.0295
     13 C2         70.7889   50.2569    7.4699 C.ar      1 MOL     0.0108
     14 C1         71.3746   49.0262    7.7699 C.ar      1 MOL    -0.0171
     15 C11        74.5713   48.6075    9.4110 C.2       1 MOL     0.0459
     16 S9         75.1990   48.8809    7.8840 S.3       1 MOL    -0.1054
     17 H161       64.8388   48.9025    6.2082 H         1 MOL     0.1442
     18 H162       64.4923   47.9913    7.6607 H         1 MOL     0.1442
@<TRIPOS>BOND
     1    2    1 ar
     2    1    7 ar
     3    1   12 ar
     4    3    2 ar
     5    2    9 ar
     6   14    3 ar
     7    4    5 1 
     8    4    6 2 
     9    4   14 1 
    10    5   15 2 
    11    6   16 1 
    12    7    8 ar
    13    8   10 ar
    14    8   11 1 
    15    9   10 ar
    16   12   13 ar
    17   13   14 ar
    18   15   16 1 
    19   17   11 1 
    20   18   11 1 
@<TRIPOS>SUBSTRUCTURE
1 MOL         1
@<TRIPOS>MOLECULE
query molecule
   18    20     1     0     0
SMALL
NO_CHARGE

@<TRIPOS>ATOM
      1 C4         64.4688   47.7534    8.3231 C.ar      1 MOL     0.0725
      2 C5         64.9768   48.2102    9.5418 C.ar      1 MOL     0.0009
      3 C6         64.2796   47.9532   10.7226 C.ar      1 MOL     0.0187
      4 C7         62.3596   46.9791   11.8786 C.2       1 MOL    -0.0112
      5 C8         62.8951   47.2624   13.1003 C.2       1 MOL     0.0163
      6 C10        61.1165   46.4686   11.9461 C.2       1 MOL     0.0538
      7 N12        65.1342   47.9735    7.1776 N.ar      1 MOL    -0.2334
      8 C13        66.3069   48.6422    7.1626 C.ar      1 MOL     0.1153
      9 C15        66.1837   48.9095    9.5624 C.ar      1 MOL     0.0138
     10 C14        66.8579   49.1299    8.3550 C.ar      1 MOL     0.0445
     11 N16        66.9287   48.8557    6.0031 N.pl3     1 MOL    -0.3432
     12 C3         63.2694   47.0431    8.2974 C.ar      1 MOL     0.0295
     13 C2         62.5678   46.7919    9.4792 C.ar      1 MOL     0.0108
     14 C1         63.0596   47.2574   10.6996 C.ar      1 MOL    -0.0171
     15 C11        62.1681   46.9909   14.1955 C.2       1 MOL     0.0459
     16 S9         60.7316   46.3667   13.6060 S.3       1 MOL    -0.1054
     17 H161       67.6924   48.2575    5.7219 H         1 MOL     0.1442
     18 H162       66.6361   49.6156    5.4056 H         1 MOL     0.1442
@<TRIPOS>BOND
     1    2    1 ar
     2    1    7 ar
     3    1   12 ar
     4    3    2 ar
     5    2    9 ar
     6   14    3 ar
     7    4    5 1 
     8    4    6 2 
     9    4   14 1 
    10    5   15 2 
    11    6   16 1 
    12    7    8 ar
    13    8   10 ar
    14    8   11 1 
    15    9   10 ar
    16   12   13 ar
    17   13   14 ar
    18   15   16 1 
    19   17   11 1 
    20   18   11 1 
@<TRIPOS>SUBSTRUCTURE
1 MOL         1
@<TRIPOS>MOLECULE
query molecule
   18    20     1     0     0
SMALL
NO_CHARGE

@<TRIPOS>ATOM
      1 C4         64.2740   47.5206    8.1882 C.ar      1 MOL     0.0725
      2 C5         64.7557   48.0704    9.3788 C.ar      1 MOL     0.0009
      3 C6         64.0898   47.8164   10.5782 C.ar      1 MOL     0.0187
      4 C7         62.2589   46.7546   11.7996 C.2       1 MOL    -0.0112
      5 C8         62.5564   47.4331   12.9445 C.2       1 MOL     0.0163
      6 C10        61.2601   45.8657   11.9503 C.2       1 MOL     0.0538
      7 N12        64.9113   47.7370    7.0262 N.ar      1 MOL    -0.2334
      8 C13        66.0297   48.4911    6.9671 C.ar      1 MOL     0.1153
      9 C15        65.9061   48.8591    9.3534 C.ar      1 MOL     0.0138
     10 C14        66.5517   49.0737    8.1295 C.ar      1 MOL     0.0445
     11 N16        66.6239   48.6970    5.7919 N.pl3     1 MOL    -0.3432
     12 C3         63.1318   46.7213    8.2089 C.ar      1 MOL     0.0295
     13 C2         62.4611   46.4728    9.4090 C.ar      1 MOL     0.0108
     14 C1         62.9260   47.0301   10.6011 C.ar      1 MOL    -0.0171
     15 C11        61.8691   47.1386   14.0592 C.2       1 MOL     0.0459
     16 S9         60.7859   45.9533   13.5878 S.3       1 MOL    -0.1054
     17 H161       67.0966   47.9364    5.3248 H         1 MOL     0.1442
     18 H162       66.6014   49.6136    5.3683 H         1 MOL     0.1442
@<TRIPOS>BOND
     1    2    1 ar
     2    1    7 ar
     3    1   12 ar
     4    3    2 ar
     5    2    9 ar
     6   14    3 ar
     7    4    5 1 
     8    4    6 2 
     9    4   14 1 
    10    5   15 2 
    11    6   16 1 
    12    7    8 ar
    13    8   10 ar
    14    8   11 1 
    15    9   10 ar
    16   12   13 ar
    17   13   14 ar
    18   15   16 1 
    19   17   11 1 
    20   18   11 1 
@<TRIPOS>SUBSTRUCTURE
1 MOL         1
@<TRIPOS>MOLECULE
query molecule
   18    20     1     0     0
SMALL
NO_CHARGE

@<TRIPOS>ATOM
      1 C4         76.8628   44.1015    9.4237 C.ar      1 MOL     0.0725
      2 C5         77.6220   44.9762    8.6425 C.ar      1 MOL     0.0009
      3 C6         77.0131   45.6866    7.6076 C.ar      1 MOL     0.0187
      4 C7         75.0216   46.2365    6.3026 C.2       1 MOL    -0.0112
      5 C8         74.7636   47.5693    6.4324 C.2       1 MOL     0.0163
      6 C10        74.6600   45.7369    5.1068 C.2       1 MOL     0.0538
      7 N12        77.4257   43.4231   10.4367 N.ar      1 MOL    -0.2334
      8 C13        78.7363   43.5583   10.7316 C.ar      1 MOL     0.1153
      9 C15        78.9807   45.1361    8.9160 C.ar      1 MOL     0.0138
     10 C14        79.5462   44.4156    9.9752 C.ar      1 MOL     0.0445
     11 N16        79.2619   42.8545   11.7340 N.pl3     1 MOL    -0.3432
     12 C3         75.5019   43.9468    9.1632 C.ar      1 MOL     0.0295
     13 C2         74.8937   44.6530    8.1224 C.ar      1 MOL     0.0108
     14 C1         75.6472   45.5175    7.3269 C.ar      1 MOL    -0.0171
     15 C11        74.1787   48.2100    5.4081 C.2       1 MOL     0.0459
     16 S9         73.9813   47.0361    4.2319 S.3       1 MOL    -0.1054
     17 H161       80.2304   42.9848   11.9892 H         1 MOL     0.1442
     18 H162       78.6917   42.1908   12.2385 H         1 MOL     0.1442
@<TRIPOS>BOND
     1    2    1 ar
     2    1    7 ar
     3    1   12 ar
     4    3    2 ar
     5    2    9 ar
     6   14    3 ar
     7    4    5 1 
     8    4    6 2 
     9    4   14 1 
    10    5   15 2 
    11    6   16 1 
    12    7    8 ar
    13    8   10 ar
    14    8   11 1 
    15    9   10 ar
    16   12   13 ar
    17   13   14 ar
    18   15   16 1 
    19   17   11 1 
    20   18   11 1 
@<TRIPOS>SUBSTRUCTURE
1 MOL         1
@<TRIPOS>MOLECULE
query molecule
   18    20     1     0     0
SMALL
NO_CHARGE

@<TRIPOS>ATOM
      1 C4         76.4863   43.2571    8.3384 C.ar      1 MOL     0.0725
      2 C5         77.2293   44.1103    7.5187 C.ar      1 MOL     0.0009
      3 C6         76.6005   44.7882    6.4739 C.ar      1 MOL     0.0187
      4 C7         74.5852   45.2940    5.1878 C.2       1 MOL    -0.0112
      5 C8         74.4895   46.6543    5.1966 C.2       1 MOL     0.0163
      6 C10        74.0497   44.7285    4.0905 C.2       1 MOL     0.0538
      7 N12        77.0686   42.6105    9.3612 N.ar      1 MOL    -0.2334
      8 C13        78.3836   42.7577    9.6293 C.ar      1 MOL     0.1153
      9 C15        78.5919   44.2817    7.7640 C.ar      1 MOL     0.0138
     10 C14        79.1778   43.5943    8.8341 C.ar      1 MOL     0.0445
     11 N16        78.9285   42.0852   10.6429 N.pl3     1 MOL    -0.3432
     12 C3         75.1217   43.0912    8.1060 C.ar      1 MOL     0.0295
     13 C2         74.4935   43.7647    7.0555 C.ar      1 MOL     0.0108
     14 C1         75.2305   44.6073    6.2219 C.ar      1 MOL    -0.0171
     15 C11        73.8759   47.2588    4.1672 C.2       1 MOL     0.0459
     16 S9         73.4309   46.0093    3.1468 S.3       1 MOL    -0.1054
     17 H161       79.9008   42.2256   10.8774 H         1 MOL     0.1442
     18 H162       78.3691   41.4353   11.1765 H         1 MOL     0.1442
@<TRIPOS>BOND
     1    2    1 ar
     2    1    7 ar
     3    1   12 ar
     4    3    2 ar
     5    2    9 ar
     6   14    3 ar
     7    4    5 1 
     8    4    6 2 
     9    4   14 1 
    10    5   15 2 
    11    6   16 1 
    12    7    8 ar
    13    8   10 ar
    14    8   11 1 
    15    9   10 ar
    16   12   13 ar
    17   13   14 ar
    18   15   16 1 
    19   17   11 1 
    20   18   11 1 
@<TRIPOS>SUBSTRUCTURE
1 MOL         1
@<TRIPOS>MOLECULE
query molecule
   18    20     1     0     0
SMALL
NO_CHARGE

@<TRIPOS>ATOM
      1 C4         71.9655   43.4692    5.1056 C.ar      1 MOL     0.0725
      2 C5         72.5049   43.7590    6.3614 C.ar      1 MOL     0.0009
      3 C6         73.2253   44.9387    6.5503 C.ar      1 MOL     0.0187
      4 C7         74.1401   47.0253    5.6667 C.2       1 MOL    -0.0112
      5 C8         74.5795   47.7533    4.6006 C.2       1 MOL     0.0163
      6 C10        74.4163   47.5966    6.8532 C.2       1 MOL     0.0538
      7 N12        71.2525   42.3486    4.9080 N.ar      1 MOL    -0.2334
      8 C13        71.0364   41.4668    5.9073 C.ar      1 MOL     0.1153
      9 C15        72.3054   42.8671    7.4154 C.ar      1 MOL     0.0138
     10 C14        71.5615   41.7034    7.1846 C.ar      1 MOL     0.0445
     11 N16        70.3382   40.3572    5.6672 N.pl3     1 MOL    -0.3432
     12 C3         72.1508   44.3627    4.0515 C.ar      1 MOL     0.0295
     13 C2         72.8782   45.5406    4.2389 C.ar      1 MOL     0.0108
     14 C1         73.4337   45.8313    5.4858 C.ar      1 MOL    -0.0171
     15 C11        75.2348   48.9008    4.8364 C.2       1 MOL     0.0459
     16 S9         75.2563   49.0410    6.5038 S.3       1 MOL    -0.1054
     17 H161       70.0314   39.7774    6.4352 H         1 MOL     0.1442
     18 H162       70.1157   40.0961    4.7172 H         1 MOL     0.1442
@<TRIPOS>BOND
     1    2    1 ar
     2    1    7 ar
     3    1   12 ar
     4    3    2 ar
     5    2    9 ar
     6   14    3 ar
     7    4    5 1 
     8    4    6 2 
     9    4   14 1 
    10    5   15 2 
    11    6   16 1 
    12    7    8 ar
    13    8   10 ar
    14    8   11 1 
    15    9   10 ar
    16   12   13 ar
    17   13   14 ar
    18   15   16 1 
    19   17   11 1 
    20   18   11 1 
@<TRIPOS>SUBSTRUCTURE
1 MOL         1
@<TRIPOS>MOLECULE
query molecule
   18    20     1     0     0
SMALL
NO_CHARGE

@<TRIPOS>ATOM
      1 C4         71.9506   43.5196    5.5993 C.ar      1 MOL     0.0725
      2 C5         71.5981   44.0681    6.8349 C.ar      1 MOL     0.0009
      3 C6         72.0458   45.3437    7.1795 C.ar      1 MOL     0.0187
      4 C7         73.3077   47.3639    6.6335 C.2       1 MOL    -0.0112
      5 C8         72.4726   48.4387    6.5500 C.2       1 MOL     0.0163
      6 C10        74.5336   47.6750    7.0929 C.2       1 MOL     0.0538
      7 N12        71.5140   42.3015    5.2406 N.ar      1 MOL    -0.2334
      8 C13        70.7280   41.5674    6.0567 C.ar      1 MOL     0.1153
      9 C15        70.7914   43.3347    7.7053 C.ar      1 MOL     0.0138
     10 C14        70.3510   42.0653    7.3110 C.ar      1 MOL     0.0445
     11 N16        70.3292   40.3551    5.6719 N.pl3     1 MOL    -0.3432
     12 C3         72.7463   44.2527    4.7200 C.ar      1 MOL     0.0295
     13 C2         73.2004   45.5273    5.0680 C.ar      1 MOL     0.0108
     14 C1         72.8661   46.0773    6.3064 C.ar      1 MOL    -0.0171
     15 C11        72.9474   49.6457    6.8957 C.2       1 MOL     0.0459
     16 S9         74.5281   49.3601    7.3652 S.3       1 MOL    -0.1054
     17 H161       69.6144   39.8691    6.1944 H         1 MOL     0.1442
     18 H162       70.7418   39.9225    4.8579 H         1 MOL     0.1442
@<TRIPOS>BOND
     1    2    1 ar
     2    1    7 ar
     3    1   12 ar
     4    3    2 ar
     5    2    9 ar
     6   14    3 ar
     7    4    5 1 
     8    4    6 2 
     9    4   14 1 
    10    5   15 2 
    11    6   16 1 
    12    7    8 ar
    13    8   10 ar
    14    8   11 1 
    15    9   10 ar
    16   12   13 ar
    17   13   14 ar
    18   15   16 1 
    19   17   11 1 
    20   18   11 1 
@<TRIPOS>SUBSTRUCTURE
1 MOL         1
@<TRIPOS>MOLECULE
query molecule
   18    20     1     0     0
SMALL
NO_CHARGE

@<TRIPOS>ATOM
      1 C4         73.1453   43.5513    7.8022 C.ar      1 MOL     0.0725
      2 C5         73.4271   43.4278    6.4394 C.ar      1 MOL     0.0009
      3 C6         74.7504   43.4692    5.9993 C.ar      1 MOL     0.0187
      4 C7         77.1365   43.6816    6.4819 C.2       1 MOL    -0.0112
      5 C8         77.6369   42.7059    5.6711 C.2       1 MOL     0.0163
      6 C10        78.0277   44.6490    6.7653 C.2       1 MOL     0.0538
      7 N12        71.8800   43.4946    8.2482 N.ar      1 MOL    -0.2334
      8 C13        70.8427   43.3215    7.4015 C.ar      1 MOL     0.1153
      9 C15        72.3787   43.2531    5.5357 C.ar      1 MOL     0.0138
     10 C14        71.0673   43.2005    6.0238 C.ar      1 MOL     0.0445
     11 N16        69.5995   43.2879    7.8811 N.pl3     1 MOL    -0.3432
     12 C3         74.1896   43.7137    8.7115 C.ar      1 MOL     0.0295
     13 C2         75.5142   43.7621    8.2699 C.ar      1 MOL     0.0108
     14 C1         75.8045   43.6550    6.9090 C.ar      1 MOL    -0.0171
     15 C11        78.9172   42.7954    5.2782 C.2       1 MOL     0.0459
     16 S9         79.4754   44.2116    5.9735 S.3       1 MOL    -0.1054
     17 H161       69.2945   42.5032    8.4391 H         1 MOL     0.1442
     18 H162       68.9625   44.0471    7.6865 H         1 MOL     0.1442
@<TRIPOS>BOND
     1    2    1 ar
     2    1    7 ar
     3    1   12 ar
     4    3    2 ar
     5    2    9 ar
     6   14    3 ar
     7    4    5 1 
     8    4    6 2 
     9    4   14 1 
    10    5   15 2 
    11    6   16 1 
    12    7    8 ar
    13    8   10 ar
    14    8   11 1 
    15    9   10 ar
    16   12   13 ar
    17   13   14 ar
    18   15   16 1 
    19   17   11 1 
    20   18   11 1 
@<TRIPOS>SUBSTRUCTURE
1 MOL         1
@<TRIPOS>MOLECULE
query molecule
   18    20     1     0     0
SMALL
NO_CHARGE

@<TRIPOS>ATOM
      1 C4         73.1453   43.5513    7.8022 C.ar      1 MOL     0.0725
      2 C5         73.4271   43.4278    6.4394 C.ar      1 MOL     0.0009
      3 C6         74.7503   43.4693    5.9992 C.ar      1 MOL     0.0187
      4 C7         77.1364   43.6816    6.4817 C.2       1 MOL    -0.0112
      5 C8         77.6367   42.7060    5.6709 C.2       1 MOL     0.0163
      6 C10        78.0277   44.6491    6.7651 C.2       1 MOL     0.0538
      7 N12        71.8800   43.4946    8.2483 N.ar      1 MOL    -0.2334
      8 C13        70.8427   43.3215    7.4017 C.ar      1 MOL     0.1153
      9 C15        72.3786   43.2531    5.5358 C.ar      1 MOL     0.0138
     10 C14        71.0672   43.2005    6.0240 C.ar      1 MOL     0.0445
     11 N16        69.5995   43.2878    7.8813 N.pl3     1 MOL    -0.3432
     12 C3         74.1896   43.7137    8.7114 C.ar      1 MOL     0.0295
     13 C2         75.5142   43.7621    8.2698 C.ar      1 MOL     0.0108
     14 C1         75.8044   43.6550    6.9089 C.ar      1 MOL    -0.0171
     15 C11        78.9170   42.7955    5.2778 C.2       1 MOL     0.0459
     16 S9         79.4752   44.2117    5.9732 S.3       1 MOL    -0.1054
     17 H161       69.1540   44.1402    8.1898 H         1 MOL     0.1442
     18 H162       69.1030   42.4101    7.9363 H         1 MOL     0.1442
@<TRIPOS>BOND
     1    2    1 ar
     2    1    7 ar
     3    1   12 ar
     4    3    2 ar
     5    2    9 ar
     6   14    3 ar
     7    4    5 1 
     8    4    6 2 
     9    4   14 1 
    10    5   15 2 
    11    6   16 1 
    12    7    8 ar
    13    8   10 ar
    14    8   11 1 
    15    9   10 ar
    16   12   13 ar
    17   13   14 ar
    18   15   16 1 
    19   17   11 1 
    20   18   11 1 
@<TRIPOS>SUBSTRUCTURE
1 MOL         1
@<TRIPOS>MOLECULE
query molecule
   18    20     1     0     0
SMALL
NO_CHARGE

@<TRIPOS>ATOM
      1 C4         72.0501   44.7581    8.9060 C.ar      1 MOL     0.0725
      2 C5         72.6631   45.8317    8.2552 C.ar      1 MOL     0.0009
      3 C6         71.9389   46.9991    8.0121 C.ar      1 MOL     0.0187
      4 C7         69.8595   48.2727    8.1721 C.2       1 MOL    -0.0112
      5 C8         70.3939   49.4994    8.4353 C.2       1 MOL     0.0163
      6 C10        68.6200   48.3311    7.6518 C.2       1 MOL     0.0538
      7 N12        72.7353   43.6331    9.1667 N.ar      1 MOL    -0.2334
      8 C13        74.0301   43.4990    8.8085 C.ar      1 MOL     0.1153
      9 C15        73.9986   45.7253    7.8662 C.ar      1 MOL     0.0138
     10 C14        74.6918   44.5412    8.1458 C.ar      1 MOL     0.0445
     11 N16        74.6712   42.3599    9.0695 N.pl3     1 MOL    -0.3432
     12 C3         70.7193   44.8630    9.3083 C.ar      1 MOL     0.0295
     13 C2         69.9921   46.0294    9.0585 C.ar      1 MOL     0.0108
     14 C1         70.5914   47.1014    8.3955 C.ar      1 MOL    -0.0171
     15 C11        69.6508   50.5882    8.1825 C.2       1 MOL     0.0459
     16 S9         68.2179   49.9876    7.5606 S.3       1 MOL    -0.1054
     17 H161       74.1588   41.5581    9.4081 H         1 MOL     0.1442
     18 H162       75.6694   42.2985    8.9286 H         1 MOL     0.1442
@<TRIPOS>BOND
     1    2    1 ar
     2    1    7 ar
     3    1   12 ar
     4    3    2 ar
     5    2    9 ar
     6   14    3 ar
     7    4    5 1 
     8    4    6 2 
     9    4   14 1 
    10    5   15 2 
    11    6   16 1 
    12    7    8 ar
    13    8   10 ar
    14    8   11 1 
    15    9   10 ar
    16   12   13 ar
    17   13   14 ar
    18   15   16 1 
    19   17   11 1 
    20   18   11 1 
@<TRIPOS>SUBSTRUCTURE
1 MOL         1
@<TRIPOS>MOLECULE
query molecule
   18    20     1     0     0
SMALL
NO_CHARGE

@<TRIPOS>ATOM
      1 C4         72.2093   44.7537    8.9571 C.ar      1 MOL     0.0725
      2 C5         72.8468   45.7952    8.2783 C.ar      1 MOL     0.0009
      3 C6         72.1549   46.9784    8.0183 C.ar      1 MOL     0.0187
      4 C7         70.1158   48.3162    8.1727 C.2       1 MOL    -0.0112
      5 C8         69.2393   48.4208    7.1332 C.2       1 MOL     0.0163
      6 C10        70.1830   49.4279    8.9279 C.2       1 MOL     0.0538
      7 N12        72.8638   43.6144    9.2341 N.ar      1 MOL    -0.2334
      8 C13        74.1502   43.4346    8.8659 C.ar      1 MOL     0.1153
      9 C15        74.1745   45.6413    7.8782 C.ar      1 MOL     0.0138
     10 C14        74.8353   44.4430    8.1753 C.ar      1 MOL     0.0445
     11 N16        74.7601   42.2825    9.1439 N.pl3     1 MOL    -0.3432
     12 C3         70.8866   44.9063    9.3703 C.ar      1 MOL     0.0295
     13 C2         70.1915   46.0885    9.1039 C.ar      1 MOL     0.0108
     14 C1         70.8151   47.1285    8.4129 C.ar      1 MOL    -0.0171
     15 C11        68.5828   49.5793    6.9645 C.2       1 MOL     0.0459
     16 S9         69.1131   50.5528    8.2182 S.3       1 MOL    -0.1054
     17 H161       74.2278   41.5034    9.5041 H         1 MOL     0.1442
     18 H162       75.7545   42.1886    8.9944 H         1 MOL     0.1442
@<TRIPOS>BOND
     1    2    1 ar
     2    1    7 ar
     3    1   12 ar
     4    3    2 ar
     5    2    9 ar
     6   14    3 ar
     7    4    5 1 
     8    4    6 2 
     9    4   14 1 
    10    5   15 2 
    11    6   16 1 
    12    7    8 ar
    13    8   10 ar
    14    8   11 1 
    15    9   10 ar
    16   12   13 ar
    17   13   14 ar
    18   15   16 1 
    19   17   11 1 
    20   18   11 1 
@<TRIPOS>SUBSTRUCTURE
1 MOL         1
@<TRIPOS>MOLECULE
query molecule
   18    20     1     0     0
SMALL
NO_CHARGE

@<TRIPOS>ATOM
      1 C4         65.6898   47.9810   20.3698 C.ar      1 MOL     0.0725
      2 C5         64.7757   46.9997   20.7614 C.ar      1 MOL     0.0009
      3 C6         63.4105   47.2873   20.7662 C.ar      1 MOL     0.0187
      4 C7         61.5760   48.8563   20.3864 C.2       1 MOL    -0.0112
      5 C8         61.1163   50.0437   19.8980 C.2       1 MOL     0.0163
      6 C10        60.5941   48.0281   20.7870 C.2       1 MOL     0.0538
      7 N12        67.0063   47.7183   20.3397 N.ar      1 MOL    -0.2334
      8 C13        67.4901   46.5069   20.6878 C.ar      1 MOL     0.1153
      9 C15        65.2414   45.7382   21.1327 C.ar      1 MOL     0.0138
     10 C14        66.6188   45.4886   21.0967 C.ar      1 MOL     0.0445
     11 N16        68.8050   46.2903   20.6614 N.pl3     1 MOL    -0.3432
     12 C3         65.2296   49.2398   19.9857 C.ar      1 MOL     0.0295
     13 C2         63.8630   49.5299   19.9972 C.ar      1 MOL     0.0108
     14 C1         62.9434   48.5609   20.4015 C.ar      1 MOL    -0.0171
     15 C11        59.7920   50.2626   19.8914 C.2       1 MOL     0.0459
     16 S9         59.1284   48.8623   20.5233 S.3       1 MOL    -0.1054
     17 H161       69.1601   45.3521   20.5432 H         1 MOL     0.1442
     18 H162       69.4464   47.0643   20.7597 H         1 MOL     0.1442
@<TRIPOS>BOND
     1    2    1 ar
     2    1    7 ar
     3    1   12 ar
     4    3    2 ar
     5    2    9 ar
     6   14    3 ar
     7    4    5 1 
     8    4    6 2 
     9    4   14 1 
    10    5   15 2 
    11    6   16 1 
    12    7    8 ar
    13    8   10 ar
    14    8   11 1 
    15    9   10 ar
    16   12   13 ar
    17   13   14 ar
    18   15   16 1 
    19   17   11 1 
    20   18   11 1 
@<TRIPOS>SUBSTRUCTURE
1 MOL         1
@<TRIPOS>MOLECULE
query molecule
   18    20     1     0     0
SMALL
NO_CHARGE

@<TRIPOS>ATOM
      1 C4         65.5415   47.9818   20.3310 C.ar      1 MOL     0.0725
      2 C5         64.6895   46.9244   20.6598 C.ar      1 MOL     0.0009
      3 C6         63.3090   47.1258   20.6729 C.ar      1 MOL     0.0187
      4 C7         61.3810   48.5970   20.3731 C.2       1 MOL    -0.0112
      5 C8         60.5995   48.1184   19.3632 C.2       1 MOL     0.0163
      6 C10        60.6824   49.2234   21.3374 C.2       1 MOL     0.0538
      7 N12        66.8719   47.8036   20.2938 N.ar      1 MOL    -0.2334
      8 C13        67.4296   46.6065   20.5743 C.ar      1 MOL     0.1153
      9 C15        65.2322   45.6749   20.9605 C.ar      1 MOL     0.0138
     10 C14        66.6226   45.5140   20.9185 C.ar      1 MOL     0.0445
     11 N16        68.7555   46.4740   20.5436 N.pl3     1 MOL    -0.3432
     12 C3         65.0045   49.2296   20.0174 C.ar      1 MOL     0.0295
     13 C2         63.6225   49.4329   20.0374 C.ar      1 MOL     0.0108
     14 C1         62.7642   48.3868   20.3794 C.ar      1 MOL    -0.0171
     15 C11        59.2761   48.3345   19.4216 C.2       1 MOL     0.0459
     16 S9         59.0464   49.1702   20.8532 S.3       1 MOL    -0.1054
     17 H161       69.2804   46.4462   21.4060 H         1 MOL     0.1442
     18 H162       69.2354   46.4014   19.6578 H         1 MOL     0.1442
@<TRIPOS>BOND
     1    2    1 ar
     2    1    7 ar
     3    1   12 ar
     4    3    2 ar
     5    2    9 ar
     6   14    3 ar
     7    4    5 1 
     8    4    6 2 
     9    4   14 1 
    10    5   15 2 
    11    6   16 1 
    12    7    8 ar
    13    8   10 ar
    14    8   11 1 
    15    9   10 ar
    16   12   13 ar
    17   13   14 ar
    18   15   16 1 
    19   17   11 1 
    20   18   11 1 
@<TRIPOS>SUBSTRUCTURE
1 MOL         1
@<TRIPOS>MOLECULE
query molecule
   18    20     1     0     0
SMALL
NO_CHARGE

@<TRIPOS>ATOM
      1 C4         67.2690   53.2278   11.5967 C.ar      1 MOL     0.0725
      2 C5         68.4512   53.5845   10.9431 C.ar      1 MOL     0.0009
      3 C6         69.5863   52.7849   11.0792 C.ar      1 MOL     0.0187
      4 C7         70.6885   50.8149   12.0151 C.2       1 MOL    -0.0112
      5 C8         71.0984   50.0103   10.9933 C.2       1 MOL     0.0163
      6 C10        71.4921   50.7598   13.0930 C.2       1 MOL     0.0538
      7 N12        66.1602   53.9734   11.4630 N.ar      1 MOL    -0.2334
      8 C13        66.1495   55.0879   10.7011 C.ar      1 MOL     0.1153
      9 C15        68.4771   54.7332   10.1518 C.ar      1 MOL     0.0138
     10 C14        67.3096   55.4967   10.0302 C.ar      1 MOL     0.0445
     11 N16        65.0337   55.8110   10.6074 N.pl3     1 MOL    -0.3432
     12 C3         67.2334   52.0743   12.3789 C.ar      1 MOL     0.0295
     13 C2         68.3720   51.2773   12.5207 C.ar      1 MOL     0.0108
     14 C1         69.5617   51.6338   11.8840 C.ar      1 MOL    -0.0171
     15 C11        72.1981   49.2614   11.1708 C.2       1 MOL     0.0459
     16 S9         72.7231   49.6396   12.7142 S.3       1 MOL    -0.1054
     17 H161       64.2879   55.6777   11.2754 H         1 MOL     0.1442
     18 H162       64.9340   56.4922    9.8685 H         1 MOL     0.1442
@<TRIPOS>BOND
     1    2    1 ar
     2    1    7 ar
     3    1   12 ar
     4    3    2 ar
     5    2    9 ar
     6   14    3 ar
     7    4    5 1 
     8    4    6 2 
     9    4   14 1 
    10    5   15 2 
    11    6   16 1 
    12    7    8 ar
    13    8   10 ar
    14    8   11 1 
    15    9   10 ar
    16   12   13 ar
    17   13   14 ar
    18   15   16 1 
    19   17   11 1 
    20   18   11 1 
@<TRIPOS>SUBSTRUCTURE
1 MOL         1
@<TRIPOS>MOLECULE
query molecule
   18    20     1     0     0
SMALL
NO_CHARGE

@<TRIPOS>ATOM
      1 C4         67.5786   53.1314   11.5816 C.ar      1 MOL     0.0725
      2 C5         68.7733   53.3786   10.9008 C.ar      1 MOL     0.0009
      3 C6         69.8517   52.5071   11.0555 C.ar      1 MOL     0.0187
      4 C7         70.8272   50.5024   12.0562 C.2       1 MOL    -0.0112
      5 C8         71.8084   50.7275   12.9761 C.2       1 MOL     0.0163
      6 C10        70.9841   49.3499   11.3797 C.2       1 MOL     0.0538
      7 N12        66.5226   53.9472   11.4312 N.ar      1 MOL    -0.2334
      8 C13        66.5787   55.0293   10.6258 C.ar      1 MOL     0.1153
      9 C15        68.8679   54.4910   10.0643 C.ar      1 MOL     0.0138
     10 C14        67.7548   55.3293    9.9259 C.ar      1 MOL     0.0445
     11 N16        65.5149   55.8248   10.5163 N.pl3     1 MOL    -0.3432
     12 C3         67.4738   52.0144   12.4094 C.ar      1 MOL     0.0295
     13 C2         68.5560   51.1456   12.5697 C.ar      1 MOL     0.0108
     14 C1         69.7585   51.3927   11.9056 C.ar      1 MOL    -0.0171
     15 C11        72.7981   49.8277   13.0883 C.2       1 MOL     0.0459
     16 S9         72.4199   48.6409   11.9707 S.3       1 MOL    -0.1054
     17 H161       64.5876   55.4503   10.6581 H         1 MOL     0.1442
     18 H162       65.6359   56.8020   10.2916 H         1 MOL     0.1442
@<TRIPOS>BOND
     1    2    1 ar
     2    1    7 ar
     3    1   12 ar
     4    3    2 ar
     5    2    9 ar
     6   14    3 ar
     7    4    5 1 
     8    4    6 2 
     9    4   14 1 
    10    5   15 2 
    11    6   16 1 
    12    7    8 ar
    13    8   10 ar
    14    8   11 1 
    15    9   10 ar
    16   12   13 ar
    17   13   14 ar
    18   15   16 1 
    19   17   11 1 
    20   18   11 1 
@<TRIPOS>SUBSTRUCTURE
1 MOL         1
@<TRIPOS>MOLECULE
query molecule
   18    20     1     0     0
SMALL
NO_CHARGE

@<TRIPOS>ATOM
      1 C4         67.6078   53.0265   11.3259 C.ar      1 MOL     0.0725
      2 C5         68.7824   53.2798   10.6129 C.ar      1 MOL     0.0009
      3 C6         69.8268   52.3554   10.6478 C.ar      1 MOL     0.0187
      4 C7         70.7541   50.2376   11.4393 C.2       1 MOL    -0.0112
      5 C8         70.6851   49.0915   10.7034 C.2       1 MOL     0.0163
      6 C10        71.9050   50.3629   12.1250 C.2       1 MOL     0.0538
      7 N12        66.5836   53.8942   11.2897 N.ar      1 MOL    -0.2334
      8 C13        66.6534   55.0354   10.5717 C.ar      1 MOL     0.1153
      9 C15        68.8906   54.4522    9.8646 C.ar      1 MOL     0.0138
     10 C14        67.8108   55.3436    9.8448 C.ar      1 MOL     0.0445
     11 N16        65.6221   55.8798   10.5750 N.pl3     1 MOL    -0.3432
     12 C3         67.4889   51.8507   12.0656 C.ar      1 MOL     0.0295
     13 C2         68.5374   50.9284   12.1061 C.ar      1 MOL     0.0108
     14 C1         69.7204   51.1799   11.4095 C.ar      1 MOL    -0.0171
     15 C11        71.7163   48.2340   10.7573 C.2       1 MOL     0.0459
     16 S9         72.8185   48.9615   11.7852 S.3       1 MOL    -0.1054
     17 H161       64.9063   55.8000   11.2831 H         1 MOL     0.1442
     18 H162       65.5564   56.5995    9.8695 H         1 MOL     0.1442
@<TRIPOS>BOND
     1    2    1 ar
     2    1    7 ar
     3    1   12 ar
     4    3    2 ar
     5    2    9 ar
     6   14    3 ar
     7    4    5 1 
     8    4    6 2 
     9    4   14 1 
    10    5   15 2 
    11    6   16 1 
    12    7    8 ar
    13    8   10 ar
    14    8   11 1 
    15    9   10 ar
    16   12   13 ar
    17   13   14 ar
    18   15   16 1 
    19   17   11 1 
    20   18   11 1 
@<TRIPOS>SUBSTRUCTURE
1 MOL         1
@<TRIPOS>MOLECULE
query molecule
   18    20     1     0     0
SMALL
NO_CHARGE

@<TRIPOS>ATOM
      1 C4         76.4650   45.2203    8.9593 C.ar      1 MOL     0.0725
      2 C5         76.8760   46.2329    9.8297 C.ar      1 MOL     0.0009
      3 C6         75.9347   47.1180   10.3562 C.ar      1 MOL     0.0187
      4 C7         73.6227   47.8878   10.5389 C.2       1 MOL    -0.0112
      5 C8         73.1521   48.9460    9.8188 C.2       1 MOL     0.0163
      6 C10        73.0453   47.7663   11.7482 C.2       1 MOL     0.0538
      7 N12        77.3523   44.3465    8.4570 N.ar      1 MOL    -0.2334
      8 C13        78.6637   44.4171    8.7700 C.ar      1 MOL     0.1153
      9 C15        78.2247   46.3384   10.1704 C.ar      1 MOL     0.0138
     10 C14        79.1320   45.4179    9.6315 C.ar      1 MOL     0.0445
     11 N16        79.5161   43.5418    8.2372 N.pl3     1 MOL    -0.3432
     12 C3         75.1167   45.1021    8.6249 C.ar      1 MOL     0.0295
     13 C2         74.1752   45.9927    9.1466 C.ar      1 MOL     0.0108
     14 C1         74.5784   47.0168   10.0048 C.ar      1 MOL    -0.0171
     15 C11        72.2212   49.7357   10.3768 C.2       1 MOL     0.0459
     16 S9         71.9381   49.0587   11.8808 S.3       1 MOL    -0.1054
     17 H161       79.2094   42.6031    8.0250 H         1 MOL     0.1442
     18 H162       80.4688   43.8170    8.0457 H         1 MOL     0.1442
@<TRIPOS>BOND
     1    2    1 ar
     2    1    7 ar
     3    1   12 ar
     4    3    2 ar
     5    2    9 ar
     6   14    3 ar
     7    4    5 1 
     8    4    6 2 
     9    4   14 1 
    10    5   15 2 
    11    6   16 1 
    12    7    8 ar
    13    8   10 ar
    14    8   11 1 
    15    9   10 ar
    16   12   13 ar
    17   13   14 ar
    18   15   16 1 
    19   17   11 1 
    20   18   11 1 
@<TRIPOS>SUBSTRUCTURE
1 MOL         1
@<TRIPOS>MOLECULE
query molecule
   18    20     1     0     0
SMALL
NO_CHARGE

@<TRIPOS>ATOM
      1 C4         76.3958   45.3316    9.1737 C.ar      1 MOL     0.0725
      2 C5         76.7654   46.3739   10.0275 C.ar      1 MOL     0.0009
      3 C6         75.7989   47.2695   10.4859 C.ar      1 MOL     0.0187
      4 C7         73.4776   48.0305   10.5483 C.2       1 MOL    -0.0112
      5 C8         73.1020   48.0388   11.8593 C.2       1 MOL     0.0163
      6 C10        72.8511   48.9630    9.8078 C.2       1 MOL     0.0538
      7 N12        77.3074   44.4476    8.7368 N.ar      1 MOL    -0.2334
      8 C13        78.6043   44.5363    9.1012 C.ar      1 MOL     0.1153
      9 C15        78.0984   46.4985   10.4199 C.ar      1 MOL     0.0138
     10 C14        79.0316   45.5669    9.9488 C.ar      1 MOL     0.0445
     11 N16        79.4823   43.6497    8.6325 N.pl3     1 MOL    -0.3432
     12 C3         75.0631   45.1944    8.7879 C.ar      1 MOL     0.0295
     13 C2         74.0965   46.0954    9.2415 C.ar      1 MOL     0.0108
     14 C1         74.4588   47.1488   10.0823 C.ar      1 MOL    -0.0171
     15 C11        72.1693   48.9208   12.2515 C.2       1 MOL     0.0459
     16 S9         71.7894   49.7794   10.8662 S.3       1 MOL    -0.1054
     17 H161       79.1891   42.7029    8.4380 H         1 MOL     0.1442
     18 H162       80.4408   43.9246    8.4717 H         1 MOL     0.1442
@<TRIPOS>BOND
     1    2    1 ar
     2    1    7 ar
     3    1   12 ar
     4    3    2 ar
     5    2    9 ar
     6   14    3 ar
     7    4    5 1 
     8    4    6 2 
     9    4   14 1 
    10    5   15 2 
    11    6   16 1 
    12    7    8 ar
    13    8   10 ar
    14    8   11 1 
    15    9   10 ar
    16   12   13 ar
    17   13   14 ar
    18   15   16 1 
    19   17   11 1 
    20   18   11 1 
@<TRIPOS>SUBSTRUCTURE
1 MOL         1
@<TRIPOS>MOLECULE
query molecule
   18    20     1     0     0
SMALL
NO_CHARGE

@<TRIPOS>ATOM
      1 C4         76.3932   45.4700    9.1787 C.ar      1 MOL     0.0725
      2 C5         76.7811   46.4958   10.0442 C.ar      1 MOL     0.0009
      3 C6         75.8234   47.3768   10.5473 C.ar      1 MOL     0.0187
      4 C7         73.5013   48.1250   10.6879 C.2       1 MOL    -0.0112
      5 C8         72.8437   49.0030    9.8778 C.2       1 MOL     0.0163
      6 C10        73.0837   48.1629   11.9664 C.2       1 MOL     0.0538
      7 N12        77.2966   44.5999    8.6989 N.ar      1 MOL    -0.2334
      8 C13        78.6024   44.6872    9.0302 C.ar      1 MOL     0.1153
      9 C15        78.1236   46.6186   10.4035 C.ar      1 MOL     0.0138
     10 C14        79.0478   45.7017    9.8879 C.ar      1 MOL     0.0445
     11 N16        79.4713   43.8150    8.5194 N.pl3     1 MOL    -0.3432
     12 C3         75.0513   45.3345    8.8258 C.ar      1 MOL     0.0295
     13 C2         74.0933   46.2210    9.3241 C.ar      1 MOL     0.0108
     14 C1         74.4735   47.2581   10.1772 C.ar      1 MOL    -0.0171
     15 C11        71.9072   49.7962   10.4215 C.2       1 MOL     0.0459
     16 S9         71.8718   49.3629   12.0375 S.3       1 MOL    -0.1054
     17 H161       79.4342   43.5812    7.5375 H         1 MOL     0.1442
     18 H162       80.1669   43.3879    9.1142 H         1 MOL     0.1442
@<TRIPOS>BOND
     1    2    1 ar
     2    1    7 ar
     3    1   12 ar
     4    3    2 ar
     5    2    9 ar
     6   14    3 ar
     7    4    5 1 
     8    4    6 2 
     9    4   14 1 
    10    5   15 2 
    11    6   16 1 
    12    7    8 ar
    13    8   10 ar
    14    8   11 1 
    15    9   10 ar
    16   12   13 ar
    17   13   14 ar
    18   15   16 1 
    19   17   11 1 
    20   18   11 1 
@<TRIPOS>SUBSTRUCTURE
1 MOL         1
@<TRIPOS>MOLECULE
query molecule
   18    20     1     0     0
SMALL
NO_CHARGE

@<TRIPOS>ATOM
      1 C4         64.0585   44.8649   11.3720 C.ar      1 MOL     0.0725
      2 C5         63.5210   46.1220   11.6596 C.ar      1 MOL     0.0009
      3 C6         63.6956   46.6762   12.9280 C.ar      1 MOL     0.0187
      4 C7         64.5849   46.5277   15.1992 C.2       1 MOL    -0.0112
      5 C8         64.5500   45.7503   16.3192 C.2       1 MOL     0.0163
      6 C10        64.8651   47.8188   15.4543 C.2       1 MOL     0.0538
      7 N12        63.9182   44.3225   10.1516 N.ar      1 MOL    -0.2334
      8 C13        63.2544   44.9660    9.1677 C.ar      1 MOL     0.1153
      9 C15        62.8243   46.8128   10.6678 C.ar      1 MOL     0.0138
     10 C14        62.6879   46.2256    9.4039 C.ar      1 MOL     0.0445
     11 N16        63.1215   44.3869    7.9746 N.pl3     1 MOL    -0.3432
     12 C3         64.7664   44.1751   12.3552 C.ar      1 MOL     0.0295
     13 C2         64.9353   44.7271   13.6274 C.ar      1 MOL     0.0108
     14 C1         64.3889   45.9755   13.9287 C.ar      1 MOL    -0.0171
     15 C11        64.7645   46.3333   17.5090 C.2       1 MOL     0.0459
     16 S9         65.0423   47.9435   17.1475 S.3       1 MOL    -0.1054
     17 H161       62.2113   44.0836    7.6590 H         1 MOL     0.1442
     18 H162       63.9310   44.2513    7.3861 H         1 MOL     0.1442
@<TRIPOS>BOND
     1    2    1 ar
     2    1    7 ar
     3    1   12 ar
     4    3    2 ar
     5    2    9 ar
     6   14    3 ar
     7    4    5 1 
     8    4    6 2 
     9    4   14 1 
    10    5   15 2 
    11    6   16 1 
    12    7    8 ar
    13    8   10 ar
    14    8   11 1 
    15    9   10 ar
    16   12   13 ar
    17   13   14 ar
    18   15   16 1 
    19   17   11 1 
    20   18   11 1 
@<TRIPOS>SUBSTRUCTURE
1 MOL         1
@<TRIPOS>MOLECULE
query molecule
   18    20     1     0     0
SMALL
NO_CHARGE

@<TRIPOS>ATOM
      1 C4         64.0614   44.8358   11.3930 C.ar      1 MOL     0.0725
      2 C5         63.5572   46.0865   11.7585 C.ar      1 MOL     0.0009
      3 C6         63.7496   46.5582   13.0573 C.ar      1 MOL     0.0187
      4 C7         64.6413   46.2496   15.3115 C.2       1 MOL    -0.0112
      5 C8         64.8224   47.5780   15.5615 C.2       1 MOL     0.0163
      6 C10        64.6461   45.4919   16.4234 C.2       1 MOL     0.0538
      7 N12        63.9038   44.3722   10.1427 N.ar      1 MOL    -0.2334
      8 C13        63.2539   45.0909    9.2025 C.ar      1 MOL     0.1153
      9 C15        62.8756   46.8536   10.8134 C.ar      1 MOL     0.0138
     10 C14        62.7206   46.3478    9.5169 C.ar      1 MOL     0.0445
     11 N16        63.1028   44.5887    7.9771 N.pl3     1 MOL    -0.3432
     12 C3         64.7542   44.0699   12.3295 C.ar      1 MOL     0.0295
     13 C2         64.9409   44.5393   13.6321 C.ar      1 MOL     0.0108
     14 C1         64.4275   45.7807   14.0108 C.ar      1 MOL    -0.0171
     15 C11        65.0037   47.9705   16.8322 C.2       1 MOL     0.0459
     16 S9         64.9119   46.5600   17.7281 S.3       1 MOL    -0.1054
     17 H161       62.1841   44.3283    7.6478 H         1 MOL     0.1442
     18 H162       63.9068   44.4685    7.3779 H         1 MOL     0.1442
@<TRIPOS>BOND
     1    2    1 ar
     2    1    7 ar
     3    1   12 ar
     4    3    2 ar
     5    2    9 ar
     6   14    3 ar
     7    4    5 1 
     8    4    6 2 
     9    4   14 1 
    10    5   15 2 
    11    6   16 1 
    12    7    8 ar
    13    8   10 ar
    14    8   11 1 
    15    9   10 ar
    16   12   13 ar
    17   13   14 ar
    18   15   16 1 
    19   17   11 1 
    20   18   11 1 
@<TRIPOS>SUBSTRUCTURE
1 MOL         1
@<TRIPOS>MOLECULE
query molecule
   18    20     1     0     0
SMALL
NO_CHARGE

@<TRIPOS>ATOM
      1 C4         64.2413   44.7250   11.1296 C.ar      1 MOL     0.0725
      2 C5         63.6659   45.9162   11.5791 C.ar      1 MOL     0.0009
      3 C6         63.7938   46.2849   12.9186 C.ar      1 MOL     0.0187
      4 C7         64.6270   45.8281   15.1699 C.2       1 MOL    -0.0112
      5 C8         64.3033   44.9671   16.1767 C.2       1 MOL     0.0163
      6 C10        65.1278   46.9975   15.6083 C.2       1 MOL     0.0538
      7 N12        64.1461   44.3618    9.8404 N.ar      1 MOL    -0.2334
      8 C13        63.4926   45.1270    8.9402 C.ar      1 MOL     0.1153
      9 C15        62.9786   46.7286   10.6770 C.ar      1 MOL     0.0138
     10 C14        62.8895   46.3274    9.3383 C.ar      1 MOL     0.0445
     11 N16        63.4050   44.7236    7.6729 N.pl3     1 MOL    -0.3432
     12 C3         64.9400   43.9151   12.0237 C.ar      1 MOL     0.0295
     13 C2         65.0621   44.2809   13.3665 C.ar      1 MOL     0.0108
     14 C1         64.4777   45.4613   13.8281 C.ar      1 MOL    -0.0171
     15 C11        64.4865   45.3681   17.4445 C.2       1 MOL     0.0459
     16 S9         65.1225   46.9104   17.3130 S.3       1 MOL    -0.1054
     17 H161       62.5110   44.4505    7.2904 H         1 MOL     0.1442
     18 H162       64.2327   44.6910    7.0949 H         1 MOL     0.1442
@<TRIPOS>BOND
     1    2    1 ar
     2    1    7 ar
     3    1   12 ar
     4    3    2 ar
     5    2    9 ar
     6   14    3 ar
     7    4    5 1 
     8    4    6 2 
     9    4   14 1 
    10    5   15 2 
    11    6   16 1 
    12    7    8 ar
    13    8   10 ar
    14    8   11 1 
    15    9   10 ar
    16   12   13 ar
    17   13   14 ar
    18   15   16 1 
    19   17   11 1 
    20   18   11 1 
@<TRIPOS>SUBSTRUCTURE
1 MOL         1
@<TRIPOS>MOLECULE
query molecule
   18    20     1     0     0
SMALL
NO_CHARGE

@<TRIPOS>ATOM
      1 C4         70.9627   50.5600   12.1843 C.ar      1 MOL     0.0725
      2 C5         71.1643   49.3208   11.5713 C.ar      1 MOL     0.0009
      3 C6         70.3352   48.9242   10.5217 C.ar      1 MOL     0.0187
      4 C7         68.4565   49.3689    9.0236 C.2       1 MOL    -0.0112
      5 C8         68.8387   49.5602    7.7286 C.2       1 MOL     0.0163
      6 C10        67.2642   48.7567    9.1432 C.2       1 MOL     0.0538
      7 N12        71.7618   50.9685   13.1832 N.ar      1 MOL    -0.2334
      8 C13        72.7783   50.2005   13.6298 C.ar      1 MOL     0.1153
      9 C15        72.2024   48.4992   12.0114 C.ar      1 MOL     0.0138
     10 C14        73.0205   48.9451   13.0568 C.ar      1 MOL     0.0445
     11 N16        73.5387   50.6337   14.6352 N.pl3     1 MOL    -0.3432
     12 C3         69.9347   51.3908   11.7408 C.ar      1 MOL     0.0295
     13 C2         69.1001   50.9906   10.6943 C.ar      1 MOL     0.0108
     14 C1         69.2842   49.7481   10.0859 C.ar      1 MOL    -0.0171
     15 C11        68.0108   49.1582    6.7516 C.2       1 MOL     0.0459
     16 S9         66.7029   48.4897    7.5534 S.3       1 MOL    -0.1054
     17 H161       74.5439   50.5514   14.5800 H         1 MOL     0.1442
     18 H162       73.1098   51.0444   15.4522 H         1 MOL     0.1442
@<TRIPOS>BOND
     1    2    1 ar
     2    1    7 ar
     3    1   12 ar
     4    3    2 ar
     5    2    9 ar
     6   14    3 ar
     7    4    5 1 
     8    4    6 2 
     9    4   14 1 
    10    5   15 2 
    11    6   16 1 
    12    7    8 ar
    13    8   10 ar
    14    8   11 1 
    15    9   10 ar
    16   12   13 ar
    17   13   14 ar
    18   15   16 1 
    19   17   11 1 
    20   18   11 1 
@<TRIPOS>SUBSTRUCTURE
1 MOL         1
@<TRIPOS>MOLECULE
query molecule
   18    20     1     0     0
SMALL
NO_CHARGE

@<TRIPOS>ATOM
      1 C4         70.9718   50.5743   12.1835 C.ar      1 MOL     0.0725
      2 C5         71.1729   49.3500   11.5411 C.ar      1 MOL     0.0009
      3 C6         70.3525   48.9853   10.4732 C.ar      1 MOL     0.0187
      4 C7         68.4919   49.4791    8.9679 C.2       1 MOL    -0.0112
      5 C8         67.3945   48.6882    9.1403 C.2       1 MOL     0.0163
      6 C10        68.6518   49.9010    7.7002 C.2       1 MOL     0.0538
      7 N12        71.7628   50.9525   13.2006 N.ar      1 MOL    -0.2334
      8 C13        72.7704   50.1674   13.6378 C.ar      1 MOL     0.1153
      9 C15        72.2017   48.5114   11.9705 C.ar      1 MOL     0.0138
     10 C14        73.0114   48.9256   13.0353 C.ar      1 MOL     0.0445
     11 N16        73.5227   50.5703   14.6617 N.pl3     1 MOL    -0.3432
     12 C3         69.9532   51.4222   11.7509 C.ar      1 MOL     0.0295
     13 C2         69.1273   51.0538   10.6860 C.ar      1 MOL     0.0108
     14 C1         69.3107   49.8262   10.0480 C.ar      1 MOL    -0.0171
     15 C11        66.6358   48.4051    8.0697 C.2       1 MOL     0.0459
     16 S9         67.3698   49.2175    6.8041 S.3       1 MOL    -0.1054
     17 H161       74.0067   49.8907   15.2310 H         1 MOL     0.1442
     18 H162       73.6089   51.5551   14.8682 H         1 MOL     0.1442
@<TRIPOS>BOND
     1    2    1 ar
     2    1    7 ar
     3    1   12 ar
     4    3    2 ar
     5    2    9 ar
     6   14    3 ar
     7    4    5 1 
     8    4    6 2 
     9    4   14 1 
    10    5   15 2 
    11    6   16 1 
    12    7    8 ar
    13    8   10 ar
    14    8   11 1 
    15    9   10 ar
    16   12   13 ar
    17   13   14 ar
    18   15   16 1 
    19   17   11 1 
    20   18   11 1 
@<TRIPOS>SUBSTRUCTURE
1 MOL         1
@<TRIPOS>MOLECULE
query molecule
   18    20     1     0     0
SMALL
NO_CHARGE

@<TRIPOS>ATOM
      1 C4         71.0060   50.6095   12.2466 C.ar      1 MOL     0.0725
      2 C5         71.1560   49.4025   11.5592 C.ar      1 MOL     0.0009
      3 C6         70.3117   49.1054   10.4889 C.ar      1 MOL     0.0187
      4 C7         68.4543   49.7183    9.0241 C.2       1 MOL    -0.0112
      5 C8         68.7084   48.6751    8.1833 C.2       1 MOL     0.0163
      6 C10        67.3226   50.3816    8.7246 C.2       1 MOL     0.0538
      7 N12        71.8207   50.9229   13.2669 N.ar      1 MOL    -0.2334
      8 C13        72.8040   50.0874   13.6643 C.ar      1 MOL     0.1153
      9 C15        72.1585   48.5130   11.9467 C.ar      1 MOL     0.0138
     10 C14        72.9938   48.8600   13.0157 C.ar      1 MOL     0.0445
     11 N16        73.5811   50.4266   14.6926 N.pl3     1 MOL    -0.3432
     12 C3         70.0140   51.5080   11.8561 C.ar      1 MOL     0.0295
     13 C2         69.1641   51.2073   10.7889 C.ar      1 MOL     0.0108
     14 C1         69.2964   49.9973   10.1059 C.ar      1 MOL    -0.0171
     15 C11        67.8538   48.4445    7.1741 C.2       1 MOL     0.0459
     16 S9         66.6707   49.6156    7.3454 S.3       1 MOL    -0.1054
     17 H161       74.0464   49.7104   15.2319 H         1 MOL     0.1442
     18 H162       73.7049   51.3998   14.9327 H         1 MOL     0.1442
@<TRIPOS>BOND
     1    2    1 ar
     2    1    7 ar
     3    1   12 ar
     4    3    2 ar
     5    2    9 ar
     6   14    3 ar
     7    4    5 1 
     8    4    6 2 
     9    4   14 1 
    10    5   15 2 
    11    6   16 1 
    12    7    8 ar
    13    8   10 ar
    14    8   11 1 
    15    9   10 ar
    16   12   13 ar
    17   13   14 ar
    18   15   16 1 
    19   17   11 1 
    20   18   11 1 
@<TRIPOS>SUBSTRUCTURE
1 MOL         1
@<TRIPOS>MOLECULE
query molecule
   18    20     1     0     0
SMALL
NO_CHARGE

@<TRIPOS>ATOM
      1 C4         69.1796   48.2248    9.2521 C.ar      1 MOL     0.0725
      2 C5         70.5564   48.0297    9.3872 C.ar      1 MOL     0.0009
      3 C6         71.2557   48.6999   10.3914 C.ar      1 MOL     0.0187
      4 C7         71.2821   50.2519   12.2787 C.2       1 MOL    -0.0112
      5 C8         72.2751   49.6335   12.9796 C.2       1 MOL     0.0163
      6 C10        71.0897   51.5328   12.6431 C.2       1 MOL     0.0538
      7 N12        68.4850   47.5745    8.3045 N.ar      1 MOL    -0.2334
      8 C13        69.0885   46.7185    7.4527 C.ar      1 MOL     0.1153
      9 C15        71.2132   47.1560    8.5202 C.ar      1 MOL     0.0138
     10 C14        70.4685   46.4918    7.5378 C.ar      1 MOL     0.0445
     11 N16        68.3675   46.1051    6.5143 N.pl3     1 MOL    -0.3432
     12 C3         68.5155   49.0872   10.1233 C.ar      1 MOL     0.0295
     13 C2         69.2170   49.7636   11.1244 C.ar      1 MOL     0.0108
     14 C1         70.5950   49.5868   11.2574 C.ar      1 MOL    -0.0171
     15 C11        72.9118   50.3288   13.9350 C.2       1 MOL     0.0459
     16 S9         72.2035   51.8446   13.8985 S.3       1 MOL    -0.1054
     17 H161       67.6575   45.4373    6.7789 H         1 MOL     0.1442
     18 H162       68.5311   46.3082    5.5385 H         1 MOL     0.1442
@<TRIPOS>BOND
     1    2    1 ar
     2    1    7 ar
     3    1   12 ar
     4    3    2 ar
     5    2    9 ar
     6   14    3 ar
     7    4    5 1 
     8    4    6 2 
     9    4   14 1 
    10    5   15 2 
    11    6   16 1 
    12    7    8 ar
    13    8   10 ar
    14    8   11 1 
    15    9   10 ar
    16   12   13 ar
    17   13   14 ar
    18   15   16 1 
    19   17   11 1 
    20   18   11 1 
@<TRIPOS>SUBSTRUCTURE
1 MOL         1
@<TRIPOS>MOLECULE
query molecule
   18    20     1     0     0
SMALL
NO_CHARGE

@<TRIPOS>ATOM
      1 C4         69.1564   48.3536    9.2275 C.ar      1 MOL     0.0725
      2 C5         70.4826   47.9628    9.4285 C.ar      1 MOL     0.0009
      3 C6         71.2288   48.5460   10.4530 C.ar      1 MOL     0.0187
      4 C7         71.4015   50.1193   12.3148 C.2       1 MOL    -0.0112
      5 C8         71.0083   51.2943   12.8844 C.2       1 MOL     0.0163
      6 C10        72.5006   49.5917   12.8843 C.2       1 MOL     0.0538
      7 N12        68.4153   47.7906    8.2596 N.ar      1 MOL    -0.2334
      8 C13        68.9226   46.8369    7.4498 C.ar      1 MOL     0.1153
      9 C15        71.0407   46.9835    8.6065 C.ar      1 MOL     0.0138
     10 C14        70.2495   46.4132    7.6016 C.ar      1 MOL     0.0445
     11 N16        68.1604   46.3145    6.4892 N.pl3     1 MOL    -0.3432
     12 C3         68.5892   49.3229   10.0537 C.ar      1 MOL     0.0295
     13 C2         69.3387   49.9118   11.0751 C.ar      1 MOL     0.0108
     14 C1         70.6688   49.5389   11.2738 C.ar      1 MOL    -0.0171
     15 C11        71.7408   51.7927   13.8928 C.2       1 MOL     0.0459
     16 S9         72.9684   50.6773   14.1157 S.3       1 MOL    -0.1054
     17 H161       67.3494   45.7635    6.7316 H         1 MOL     0.1442
     18 H162       68.3939   46.4696    5.5189 H         1 MOL     0.1442
@<TRIPOS>BOND
     1    2    1 ar
     2    1    7 ar
     3    1   12 ar
     4    3    2 ar
     5    2    9 ar
     6   14    3 ar
     7    4    5 1 
     8    4    6 2 
     9    4   14 1 
    10    5   15 2 
    11    6   16 1 
    12    7    8 ar
    13    8   10 ar
    14    8   11 1 
    15    9   10 ar
    16   12   13 ar
    17   13   14 ar
    18   15   16 1 
    19   17   11 1 
    20   18   11 1 
@<TRIPOS>SUBSTRUCTURE
1 MOL         1
@<TRIPOS>MOLECULE
query molecule
   18    20     1     0     0
SMALL
NO_CHARGE

@<TRIPOS>ATOM
      1 C4         69.1995   48.1857    9.3393 C.ar      1 MOL     0.0725
      2 C5         70.5873   48.0514    9.4281 C.ar      1 MOL     0.0009
      3 C6         71.2870   48.7342   10.4234 C.ar      1 MOL     0.0187
      4 C7         71.3029   50.2506   12.3396 C.2       1 MOL    -0.0112
      5 C8         72.2306   49.6132   13.1095 C.2       1 MOL     0.0163
      6 C10        71.1750   51.5580   12.6309 C.2       1 MOL     0.0538
      7 N12        68.5054   47.5220    8.4008 N.ar      1 MOL    -0.2334
      8 C13        69.1198   46.7103    7.5139 C.ar      1 MOL     0.1153
      9 C15        71.2552   47.2249    8.5241 C.ar      1 MOL     0.0138
     10 C14        70.5106   46.5455    7.5520 C.ar      1 MOL     0.0445
     11 N16        68.3979   46.0821    6.5861 N.pl3     1 MOL    -0.3432
     12 C3         68.5250   49.0005   10.2476 C.ar      1 MOL     0.0295
     13 C2         69.2265   49.6897   11.2399 C.ar      1 MOL     0.0108
     14 C1         70.6147   49.5737   11.3269 C.ar      1 MOL    -0.0171
     15 C11        72.8729   50.3197   14.0529 C.2       1 MOL     0.0459
     16 S9         72.2591   51.8702   13.9120 S.3       1 MOL    -0.1054
     17 H161       68.0572   45.1470    6.7587 H         1 MOL     0.1442
     18 H162       68.1915   46.5410    5.7104 H         1 MOL     0.1442
@<TRIPOS>BOND
     1    2    1 ar
     2    1    7 ar
     3    1   12 ar
     4    3    2 ar
     5    2    9 ar
     6   14    3 ar
     7    4    5 1 
     8    4    6 2 
     9    4   14 1 
    10    5   15 2 
    11    6   16 1 
    12    7    8 ar
    13    8   10 ar
    14    8   11 1 
    15    9   10 ar
    16   12   13 ar
    17   13   14 ar
    18   15   16 1 
    19   17   11 1 
    20   18   11 1 
@<TRIPOS>SUBSTRUCTURE
1 MOL         1
@<TRIPOS>MOLECULE
query molecule
   18    20     1     0     0
SMALL
NO_CHARGE

@<TRIPOS>ATOM
      1 C4         73.0535   47.1166    2.6956 C.ar      1 MOL     0.0725
      2 C5         73.8366   46.3453    3.5580 C.ar      1 MOL     0.0009
      3 C6         74.0570   46.7773    4.8662 C.ar      1 MOL     0.0187
      4 C7         73.7175   48.4272    6.6365 C.2       1 MOL    -0.0112
      5 C8         74.3170   49.6235    6.8994 C.2       1 MOL     0.0163
      6 C10        73.3198   47.7747    7.7441 C.2       1 MOL     0.0538
      7 N12        72.8135   46.7088    1.4388 N.ar      1 MOL    -0.2334
      8 C13        73.3197   45.5498    0.9664 C.ar      1 MOL     0.1153
      9 C15        74.3800   45.1444    3.1011 C.ar      1 MOL     0.0138
     10 C14        74.1188   44.7415    1.7857 C.ar      1 MOL     0.0445
     11 N16        73.0732   45.1880   -0.2925 N.pl3     1 MOL    -0.3432
     12 C3         72.4975   48.3115    3.1502 C.ar      1 MOL     0.0295
     13 C2         72.7240   48.7475    4.4580 C.ar      1 MOL     0.0108
     14 C1         73.5174   47.9914    5.3222 C.ar      1 MOL    -0.0171
     15 C11        74.4640   49.9971    8.1803 C.2       1 MOL     0.0459
     16 S9         73.7763   48.7545    9.0653 S.3       1 MOL    -0.1054
     17 H161       73.4645   44.3314   -0.6576 H         1 MOL     0.1442
     18 H162       72.4950   45.7702   -0.8813 H         1 MOL     0.1442
@<TRIPOS>BOND
     1    2    1 ar
     2    1    7 ar
     3    1   12 ar
     4    3    2 ar
     5    2    9 ar
     6   14    3 ar
     7    4    5 1 
     8    4    6 2 
     9    4   14 1 
    10    5   15 2 
    11    6   16 1 
    12    7    8 ar
    13    8   10 ar
    14    8   11 1 
    15    9   10 ar
    16   12   13 ar
    17   13   14 ar
    18   15   16 1 
    19   17   11 1 
    20   18   11 1 
@<TRIPOS>SUBSTRUCTURE
1 MOL         1
@<TRIPOS>MOLECULE
query molecule
   18    20     1     0     0
SMALL
NO_CHARGE

@<TRIPOS>ATOM
      1 C4         73.0402   47.1163    2.6821 C.ar      1 MOL     0.0725
      2 C5         73.8077   46.3414    3.5553 C.ar      1 MOL     0.0009
      3 C6         74.0034   46.7673    4.8694 C.ar      1 MOL     0.0187
      4 C7         73.6298   48.4084    6.6410 C.2       1 MOL    -0.0112
      5 C8         74.8412   48.8515    7.0836 C.2       1 MOL     0.0163
      6 C10        72.6626   48.4786    7.5738 C.2       1 MOL     0.0538
      7 N12        72.8238   46.7145    1.4192 N.ar      1 MOL    -0.2334
      8 C13        73.3396   45.5580    0.9508 C.ar      1 MOL     0.1153
      9 C15        74.3604   45.1431    3.1028 C.ar      1 MOL     0.0138
     10 C14        74.1239   44.7463    1.7808 C.ar      1 MOL     0.0445
     11 N16        73.1167   45.2021   -0.3142 N.pl3     1 MOL    -0.3432
     12 C3         72.4749   48.3087    3.1321 C.ar      1 MOL     0.0295
     13 C2         72.6767   48.7385    4.4459 C.ar      1 MOL     0.0108
     14 C1         73.4546   47.9789    5.3211 C.ar      1 MOL    -0.0171
     15 C11        74.9436   49.2693    8.3550 C.2       1 MOL     0.0459
     16 S9         73.4018   49.0975    8.9825 S.3       1 MOL    -0.1054
     17 H161       73.8790   45.1882   -0.9768 H         1 MOL     0.1442
     18 H162       72.1857   44.9461   -0.6103 H         1 MOL     0.1442
@<TRIPOS>BOND
     1    2    1 ar
     2    1    7 ar
     3    1   12 ar
     4    3    2 ar
     5    2    9 ar
     6   14    3 ar
     7    4    5 1 
     8    4    6 2 
     9    4   14 1 
    10    5   15 2 
    11    6   16 1 
    12    7    8 ar
    13    8   10 ar
    14    8   11 1 
    15    9   10 ar
    16   12   13 ar
    17   13   14 ar
    18   15   16 1 
    19   17   11 1 
    20   18   11 1 
@<TRIPOS>SUBSTRUCTURE
1 MOL         1
@<TRIPOS>MOLECULE
query molecule
   18    20     1     0     0
SMALL
NO_CHARGE

@<TRIPOS>ATOM
      1 C4         73.0536   47.1166    2.6955 C.ar      1 MOL     0.0725
      2 C5         73.8367   46.3452    3.5578 C.ar      1 MOL     0.0009
      3 C6         74.0571   46.7769    4.8660 C.ar      1 MOL     0.0187
      4 C7         73.7175   48.4264    6.6367 C.2       1 MOL    -0.0112
      5 C8         74.3170   49.6226    6.8999 C.2       1 MOL     0.0163
      6 C10        73.3200   47.7736    7.7442 C.2       1 MOL     0.0538
      7 N12        72.8135   46.7091    1.4387 N.ar      1 MOL    -0.2334
      8 C13        73.3198   45.5502    0.9660 C.ar      1 MOL     0.1153
      9 C15        74.3802   45.1444    3.1006 C.ar      1 MOL     0.0138
     10 C14        74.1190   44.7418    1.7851 C.ar      1 MOL     0.0445
     11 N16        73.0732   45.1886   -0.2930 N.pl3     1 MOL    -0.3432
     12 C3         72.4975   48.3114    3.1504 C.ar      1 MOL     0.0295
     13 C2         72.7239   48.7471    4.4583 C.ar      1 MOL     0.0108
     14 C1         73.5175   47.9909    5.3223 C.ar      1 MOL    -0.0171
     15 C11        74.4640   49.9960    8.1808 C.2       1 MOL     0.0459
     16 S9         73.7763   48.7531    9.0656 S.3       1 MOL    -0.1054
     17 H161       72.1579   44.8480   -0.5506 H         1 MOL     0.1442
     18 H162       73.8016   45.2553   -0.9894 H         1 MOL     0.1442
@<TRIPOS>BOND
     1    2    1 ar
     2    1    7 ar
     3    1   12 ar
     4    3    2 ar
     5    2    9 ar
     6   14    3 ar
     7    4    5 1 
     8    4    6 2 
     9    4   14 1 
    10    5   15 2 
    11    6   16 1 
    12    7    8 ar
    13    8   10 ar
    14    8   11 1 
    15    9   10 ar
    16   12   13 ar
    17   13   14 ar
    18   15   16 1 
    19   17   11 1 
    20   18   11 1 
@<TRIPOS>SUBSTRUCTURE
1 MOL         1
@<TRIPOS>MOLECULE
query molecule
   18    20     1     0     0
SMALL
NO_CHARGE

@<TRIPOS>ATOM
      1 C4         72.5826   49.6967    9.3969 C.ar      1 MOL     0.0725
      2 C5         72.8214   48.9371   10.5449 C.ar      1 MOL     0.0009
      3 C6         73.9082   48.0631   10.5835 C.ar      1 MOL     0.0187
      4 C7         75.8581   47.0605    9.5045 C.2       1 MOL    -0.0112
      5 C8         77.0178   47.4230   10.1236 C.2       1 MOL     0.0163
      6 C10        75.8911   45.8150    8.9965 C.2       1 MOL     0.0538
      7 N12        71.5535   50.5578    9.3467 N.ar      1 MOL    -0.2334
      8 C13        70.7170   50.7162   10.3946 C.ar      1 MOL     0.1153
      9 C15        71.9735   49.0718   11.6445 C.ar      1 MOL     0.0138
     10 C14        70.9049   49.9735   11.5677 C.ar      1 MOL     0.0445
     11 N16        69.6964   51.5683   10.2997 N.pl3     1 MOL    -0.3432
     12 C3         73.4337   49.5757    8.2993 C.ar      1 MOL     0.0295
     13 C2         74.5179   48.6953    8.3354 C.ar      1 MOL     0.0108
     14 C1         74.7555   47.9212    9.4721 C.ar      1 MOL    -0.0171
     15 C11        78.0351   46.5474   10.1390 C.2       1 MOL     0.0459
     16 S9         77.4468   45.2010    9.3379 S.3       1 MOL    -0.1054
     17 H161       69.8382   52.5496   10.4926 H         1 MOL     0.1442
     18 H162       68.7813   51.2328   10.0350 H         1 MOL     0.1442
@<TRIPOS>BOND
     1    2    1 ar
     2    1    7 ar
     3    1   12 ar
     4    3    2 ar
     5    2    9 ar
     6   14    3 ar
     7    4    5 1 
     8    4    6 2 
     9    4   14 1 
    10    5   15 2 
    11    6   16 1 
    12    7    8 ar
    13    8   10 ar
    14    8   11 1 
    15    9   10 ar
    16   12   13 ar
    17   13   14 ar
    18   15   16 1 
    19   17   11 1 
    20   18   11 1 
@<TRIPOS>SUBSTRUCTURE
1 MOL         1
@<TRIPOS>MOLECULE
query molecule
   18    20     1     0     0
SMALL
NO_CHARGE

@<TRIPOS>ATOM
      1 C4         72.5826   49.6967    9.3969 C.ar      1 MOL     0.0725
      2 C5         72.8214   48.9371   10.5449 C.ar      1 MOL     0.0009
      3 C6         73.9082   48.0631   10.5835 C.ar      1 MOL     0.0187
      4 C7         75.8581   47.0605    9.5045 C.2       1 MOL    -0.0112
      5 C8         77.0178   47.4230   10.1236 C.2       1 MOL     0.0163
      6 C10        75.8911   45.8150    8.9965 C.2       1 MOL     0.0538
      7 N12        71.5535   50.5578    9.3467 N.ar      1 MOL    -0.2334
      8 C13        70.7170   50.7162   10.3946 C.ar      1 MOL     0.1153
      9 C15        71.9735   49.0718   11.6445 C.ar      1 MOL     0.0138
     10 C14        70.9049   49.9735   11.5677 C.ar      1 MOL     0.0445
     11 N16        69.6964   51.5683   10.2997 N.pl3     1 MOL    -0.3432
     12 C3         73.4337   49.5757    8.2993 C.ar      1 MOL     0.0295
     13 C2         74.5179   48.6953    8.3354 C.ar      1 MOL     0.0108
     14 C1         74.7555   47.9212    9.4721 C.ar      1 MOL    -0.0171
     15 C11        78.0351   46.5474   10.1390 C.2       1 MOL     0.0459
     16 S9         77.4468   45.2010    9.3379 S.3       1 MOL    -0.1054
     17 H161       69.8386   52.5499   10.4908 H         1 MOL     0.1442
     18 H162       68.7809   51.2325   10.0368 H         1 MOL     0.1442
@<TRIPOS>BOND
     1    2    1 ar
     2    1    7 ar
     3    1   12 ar
     4    3    2 ar
     5    2    9 ar
     6   14    3 ar
     7    4    5 1 
     8    4    6 2 
     9    4   14 1 
    10    5   15 2 
    11    6   16 1 
    12    7    8 ar
    13    8   10 ar
    14    8   11 1 
    15    9   10 ar
    16   12   13 ar
    17   13   14 ar
    18   15   16 1 
    19   17   11 1 
    20   18   11 1 
@<TRIPOS>SUBSTRUCTURE
1 MOL         1
@<TRIPOS>MOLECULE
query molecule
   18    20     1     0     0
SMALL
NO_CHARGE

@<TRIPOS>ATOM
      1 C4         72.7005   49.6266    9.4941 C.ar      1 MOL     0.0725
      2 C5         72.9450   48.8512   10.6303 C.ar      1 MOL     0.0009
      3 C6         74.0331   47.9783   10.6521 C.ar      1 MOL     0.0187
      4 C7         75.9800   46.9938    9.5513 C.2       1 MOL    -0.0112
      5 C8         76.9110   47.0596   10.5455 C.2       1 MOL     0.0163
      6 C10        76.2201   46.0155    8.6592 C.2       1 MOL     0.0538
      7 N12        71.6700   50.4869    9.4603 N.ar      1 MOL    -0.2334
      8 C13        70.8375   50.6293   10.5136 C.ar      1 MOL     0.1153
      9 C15        72.1013   48.9691   11.7351 C.ar      1 MOL     0.0138
     10 C14        71.0312   49.8703   11.6753 C.ar      1 MOL     0.0445
     11 N16        69.8154   51.4812   10.4349 N.pl3     1 MOL    -0.3432
     12 C3         73.5473   49.5223    8.3915 C.ar      1 MOL     0.0295
     13 C2         74.6328   48.6431    8.4108 C.ar      1 MOL     0.0108
     14 C1         74.8761   47.8533    9.5355 C.ar      1 MOL    -0.0171
     15 C11        77.9381   46.1959   10.5179 C.2       1 MOL     0.0459
     16 S9         77.6637   45.2553    9.1612 S.3       1 MOL    -0.1054
     17 H161       69.1244   51.3750    9.7060 H         1 MOL     0.1442
     18 H162       69.7319   52.2329   11.1042 H         1 MOL     0.1442
@<TRIPOS>BOND
     1    2    1 ar
     2    1    7 ar
     3    1   12 ar
     4    3    2 ar
     5    2    9 ar
     6   14    3 ar
     7    4    5 1 
     8    4    6 2 
     9    4   14 1 
    10    5   15 2 
    11    6   16 1 
    12    7    8 ar
    13    8   10 ar
    14    8   11 1 
    15    9   10 ar
    16   12   13 ar
    17   13   14 ar
    18   15   16 1 
    19   17   11 1 
    20   18   11 1 
@<TRIPOS>SUBSTRUCTURE
1 MOL         1
@<TRIPOS>MOLECULE
query molecule
   18    20     1     0     0
SMALL
NO_CHARGE

@<TRIPOS>ATOM
      1 C4         78.3261   45.0805    8.9726 C.ar      1 MOL     0.0725
      2 C5         79.7088   44.9700    8.8060 C.ar      1 MOL     0.0009
      3 C6         80.2213   44.3237    7.6807 C.ar      1 MOL     0.0187
      4 C7         79.8642   43.1269    5.5804 C.2       1 MOL    -0.0112
      5 C8         79.6422   41.8000    5.3574 C.2       1 MOL     0.0163
      6 C10        80.5508   43.7268    4.5908 C.2       1 MOL     0.0538
      7 N12        77.8130   45.7156   10.0387 N.ar      1 MOL    -0.2334
      8 C13        78.6089   46.2624   10.9822 C.ar      1 MOL     0.1153
      9 C15        80.5608   45.5190    9.7646 C.ar      1 MOL     0.0138
     10 C14        80.0026   46.1736   10.8695 C.ar      1 MOL     0.0445
     11 N16        78.0613   46.8696   12.0349 N.pl3     1 MOL    -0.3432
     12 C3         77.4696   44.5447    8.0118 C.ar      1 MOL     0.0295
     13 C2         77.9828   43.8915    6.8886 C.ar      1 MOL     0.0108
     14 C1         79.3624   43.7628    6.7211 C.ar      1 MOL    -0.0171
     15 C11        80.1320   41.2495    4.2354 C.2       1 MOL     0.0459
     16 S9         80.8865   42.5130    3.4385 S.3       1 MOL    -0.1054
     17 H161       77.2563   46.4633   12.4899 H         1 MOL     0.1442
     18 H162       78.4512   47.7359   12.3775 H         1 MOL     0.1442
@<TRIPOS>BOND
     1    2    1 ar
     2    1    7 ar
     3    1   12 ar
     4    3    2 ar
     5    2    9 ar
     6   14    3 ar
     7    4    5 1 
     8    4    6 2 
     9    4   14 1 
    10    5   15 2 
    11    6   16 1 
    12    7    8 ar
    13    8   10 ar
    14    8   11 1 
    15    9   10 ar
    16   12   13 ar
    17   13   14 ar
    18   15   16 1 
    19   17   11 1 
    20   18   11 1 
@<TRIPOS>SUBSTRUCTURE
1 MOL         1
@<TRIPOS>MOLECULE
query molecule
   18    20     1     0     0
SMALL
NO_CHARGE

@<TRIPOS>ATOM
      1 C4         78.3195   45.0700    8.9831 C.ar      1 MOL     0.0725
      2 C5         79.6976   44.9412    8.7928 C.ar      1 MOL     0.0009
      3 C6         80.1817   44.2468    7.6837 C.ar      1 MOL     0.0187
      4 C7         79.7718   42.9713    5.6401 C.2       1 MOL    -0.0112
      5 C8         80.4092   43.6296    4.6301 C.2       1 MOL     0.0163
      6 C10        79.7019   41.6411    5.4495 C.2       1 MOL     0.0538
      7 N12        77.8335   45.7509   10.0335 N.ar      1 MOL    -0.2334
      8 C13        78.6530   46.3277   10.9382 C.ar      1 MOL     0.1153
      9 C15        80.5735   45.5203    9.7113 C.ar      1 MOL     0.0138
     10 C14        80.0434   46.2226   10.8006 C.ar      1 MOL     0.0445
     11 N16        78.1320   46.9805   11.9769 N.pl3     1 MOL    -0.3432
     12 C3         77.4392   44.5041    8.0619 C.ar      1 MOL     0.0295
     13 C2         77.9240   43.8028    6.9552 C.ar      1 MOL     0.0108
     14 C1         79.2988   43.6559    6.7648 C.ar      1 MOL    -0.0171
     15 C11        80.8583   42.9164    3.5854 C.2       1 MOL     0.0459
     16 S9         80.4531   41.3337    3.9478 S.3       1 MOL    -0.1054
     17 H161       77.1894   46.7791   12.2788 H         1 MOL     0.1442
     18 H162       78.6797   47.6766   12.4622 H         1 MOL     0.1442
@<TRIPOS>BOND
     1    2    1 ar
     2    1    7 ar
     3    1   12 ar
     4    3    2 ar
     5    2    9 ar
     6   14    3 ar
     7    4    5 1 
     8    4    6 2 
     9    4   14 1 
    10    5   15 2 
    11    6   16 1 
    12    7    8 ar
    13    8   10 ar
    14    8   11 1 
    15    9   10 ar
    16   12   13 ar
    17   13   14 ar
    18   15   16 1 
    19   17   11 1 
    20   18   11 1 
@<TRIPOS>SUBSTRUCTURE
1 MOL         1
@<TRIPOS>MOLECULE
query molecule
   18    20     1     0     0
SMALL
NO_CHARGE

@<TRIPOS>ATOM
      1 C4         78.3203   45.0687    8.9843 C.ar      1 MOL     0.0725
      2 C5         79.6989   44.9415    8.7970 C.ar      1 MOL     0.0009
      3 C6         80.1863   44.2525    7.6860 C.ar      1 MOL     0.0187
      4 C7         79.7825   42.9864    5.6352 C.2       1 MOL    -0.0112
      5 C8         80.4224   43.6498    4.6302 C.2       1 MOL     0.0163
      6 C10        79.7135   41.6572    5.4381 C.2       1 MOL     0.0538
      7 N12        77.8312   45.7445   10.0365 N.ar      1 MOL    -0.2334
      8 C13        78.6480   46.3174   10.9461 C.ar      1 MOL     0.1153
      9 C15        80.5721   45.5167    9.7206 C.ar      1 MOL     0.0138
     10 C14        80.0388   46.2136   10.8117 C.ar      1 MOL     0.0445
     11 N16        78.1239   46.9651   11.9865 N.pl3     1 MOL    -0.3432
     12 C3         77.4427   44.5068    8.0581 C.ar      1 MOL     0.0295
     13 C2         77.9307   43.8109    6.9493 C.ar      1 MOL     0.0108
     14 C1         79.3061   43.6655    6.7619 C.ar      1 MOL    -0.0171
     15 C11        80.8747   42.9417    3.5833 C.2       1 MOL     0.0459
     16 S9         80.4689   41.3572    3.9371 S.3       1 MOL    -0.1054
     17 H161       77.1674   47.2876   11.9510 H         1 MOL     0.1442
     18 H162       78.6832   47.1333   12.8105 H         1 MOL     0.1442
@<TRIPOS>BOND
     1    2    1 ar
     2    1    7 ar
     3    1   12 ar
     4    3    2 ar
     5    2    9 ar
     6   14    3 ar
     7    4    5 1 
     8    4    6 2 
     9    4   14 1 
    10    5   15 2 
    11    6   16 1 
    12    7    8 ar
    13    8   10 ar
    14    8   11 1 
    15    9   10 ar
    16   12   13 ar
    17   13   14 ar
    18   15   16 1 
    19   17   11 1 
    20   18   11 1 
@<TRIPOS>SUBSTRUCTURE
1 MOL         1
@<TRIPOS>MOLECULE
query molecule
   18    20     1     0     0
SMALL
NO_CHARGE

@<TRIPOS>ATOM
      1 C4         66.8143   49.9492    9.9958 C.ar      1 MOL     0.0725
      2 C5         66.9769   49.2156    8.8180 C.ar      1 MOL     0.0009
      3 C6         66.1075   48.1625    8.5323 C.ar      1 MOL     0.0187
      4 C7         64.1924   46.7729    9.1432 C.2       1 MOL    -0.0112
      5 C8         62.8657   47.0125    8.9380 C.2       1 MOL     0.0163
      6 C10        64.5295   45.4783    8.9989 C.2       1 MOL     0.0538
      7 N12        67.6284   50.9787   10.2798 N.ar      1 MOL    -0.2334
      8 C13        68.6278   51.3363    9.4455 C.ar      1 MOL     0.1153
      9 C15        68.0029   49.5544    7.9355 C.ar      1 MOL     0.0138
     10 C14        68.8414   50.6296    8.2546 C.ar      1 MOL     0.0445
     11 N16        69.4256   52.3531    9.7711 N.pl3     1 MOL    -0.3432
     12 C3         65.7831   49.6233   10.8756 C.ar      1 MOL     0.0295
     13 C2         64.9168   48.5644   10.5929 C.ar      1 MOL     0.0108
     14 C1         65.0808   47.8161    9.4262 C.ar      1 MOL    -0.0171
     15 C11        62.0654   45.9739    8.6507 C.2       1 MOL     0.0459
     16 S9         63.0854   44.6475    8.6270 S.3       1 MOL    -0.1054
     17 H161       70.1923   52.2082   10.4125 H         1 MOL     0.1442
     18 H162       69.2636   53.2686    9.3765 H         1 MOL     0.1442
@<TRIPOS>BOND
     1    2    1 ar
     2    1    7 ar
     3    1   12 ar
     4    3    2 ar
     5    2    9 ar
     6   14    3 ar
     7    4    5 1 
     8    4    6 2 
     9    4   14 1 
    10    5   15 2 
    11    6   16 1 
    12    7    8 ar
    13    8   10 ar
    14    8   11 1 
    15    9   10 ar
    16   12   13 ar
    17   13   14 ar
    18   15   16 1 
    19   17   11 1 
    20   18   11 1 
@<TRIPOS>SUBSTRUCTURE
1 MOL         1
@<TRIPOS>MOLECULE
query molecule
   18    20     1     0     0
SMALL
NO_CHARGE

@<TRIPOS>ATOM
      1 C4         66.9020   49.9736    9.9687 C.ar      1 MOL     0.0725
      2 C5         67.0534   49.2516    8.7822 C.ar      1 MOL     0.0009
      3 C6         66.1870   48.1955    8.4987 C.ar      1 MOL     0.0187
      4 C7         64.2893   46.7880    9.1226 C.2       1 MOL    -0.0112
      5 C8         62.9481   47.0090    9.0136 C.2       1 MOL     0.0163
      6 C10        64.6401   45.5098    8.8905 C.2       1 MOL     0.0538
      7 N12        67.7131   51.0058   10.2511 N.ar      1 MOL    -0.2334
      8 C13        68.6989   51.3773    9.4067 C.ar      1 MOL     0.1153
      9 C15        68.0653   49.6051    7.8891 C.ar      1 MOL     0.0138
     10 C14        68.9010   50.6828    8.2067 C.ar      1 MOL     0.0445
     11 N16        69.4945   52.3965    9.7308 N.pl3     1 MOL    -0.3432
     12 C3         65.8848   49.6330   10.8593 C.ar      1 MOL     0.0295
     13 C2         65.0216   48.5710   10.5786 C.ar      1 MOL     0.0108
     14 C1         65.1747   47.8343    9.4031 C.ar      1 MOL    -0.0171
     15 C11        62.1502   45.9693    8.7236 C.2       1 MOL     0.0459
     16 S9         63.1908   44.6680    8.5673 S.3       1 MOL    -0.1054
     17 H161       70.4286   52.2193   10.0718 H         1 MOL     0.1442
     18 H162       69.1634   53.3458    9.6353 H         1 MOL     0.1442
@<TRIPOS>BOND
     1    2    1 ar
     2    1    7 ar
     3    1   12 ar
     4    3    2 ar
     5    2    9 ar
     6   14    3 ar
     7    4    5 1 
     8    4    6 2 
     9    4   14 1 
    10    5   15 2 
    11    6   16 1 
    12    7    8 ar
    13    8   10 ar
    14    8   11 1 
    15    9   10 ar
    16   12   13 ar
    17   13   14 ar
    18   15   16 1 
    19   17   11 1 
    20   18   11 1 
@<TRIPOS>SUBSTRUCTURE
1 MOL         1
@<TRIPOS>MOLECULE
query molecule
   18    20     1     0     0
SMALL
NO_CHARGE

@<TRIPOS>ATOM
      1 C4         66.9019   49.9736    9.9687 C.ar      1 MOL     0.0725
      2 C5         67.0534   49.2517    8.7822 C.ar      1 MOL     0.0009
      3 C6         66.1870   48.1955    8.4986 C.ar      1 MOL     0.0187
      4 C7         64.2893   46.7880    9.1224 C.2       1 MOL    -0.0112
      5 C8         62.9481   47.0091    9.0134 C.2       1 MOL     0.0163
      6 C10        64.6401   45.5099    8.8902 C.2       1 MOL     0.0538
      7 N12        67.7131   51.0057   10.2511 N.ar      1 MOL    -0.2334
      8 C13        68.6989   51.3774    9.4068 C.ar      1 MOL     0.1153
      9 C15        68.0653   49.6052    7.8892 C.ar      1 MOL     0.0138
     10 C14        68.9010   50.6829    8.2068 C.ar      1 MOL     0.0445
     11 N16        69.4945   52.3965    9.7309 N.pl3     1 MOL    -0.3432
     12 C3         65.8848   49.6330   10.8593 C.ar      1 MOL     0.0295
     13 C2         65.0216   48.5710   10.5785 C.ar      1 MOL     0.0108
     14 C1         65.1747   47.8343    9.4030 C.ar      1 MOL    -0.0171
     15 C11        62.1502   45.9693    8.7234 C.2       1 MOL     0.0459
     16 S9         63.1908   44.6680    8.5670 S.3       1 MOL    -0.1054
     17 H161       69.0946   53.2888    9.9839 H         1 MOL     0.1442
     18 H162       70.4973   52.2765    9.7236 H         1 MOL     0.1442
@<TRIPOS>BOND
     1    2    1 ar
     2    1    7 ar
     3    1   12 ar
     4    3    2 ar
     5    2    9 ar
     6   14    3 ar
     7    4    5 1 
     8    4    6 2 
     9    4   14 1 
    10    5   15 2 
    11    6   16 1 
    12    7    8 ar
    13    8   10 ar
    14    8   11 1 
    15    9   10 ar
    16   12   13 ar
    17   13   14 ar
    18   15   16 1 
    19   17   11 1 
    20   18   11 1 
@<TRIPOS>SUBSTRUCTURE
1 MOL         1
@<TRIPOS>MOLECULE
query molecule
   18    20     1     0     0
SMALL
NO_CHARGE

@<TRIPOS>ATOM
      1 C4         75.6252   43.6534    6.9809 C.ar      1 MOL     0.0725
      2 C5         76.4217   42.7918    7.7393 C.ar      1 MOL     0.0009
      3 C6         77.1450   43.2911    8.8229 C.ar      1 MOL     0.0187
      4 C7         77.8065   45.1663   10.2432 C.2       1 MOL    -0.0112
      5 C8         78.0435   46.5034   10.3689 C.2       1 MOL     0.0163
      6 C10        78.2740   44.4420   11.2764 C.2       1 MOL     0.0538
      7 N12        74.9062   43.1891    5.9462 N.ar      1 MOL    -0.2334
      8 C13        74.9303   41.8838    5.6021 C.ar      1 MOL     0.1153
      9 C15        76.4742   41.4375    7.4084 C.ar      1 MOL     0.0138
     10 C14        75.7185   40.9771    6.3231 C.ar      1 MOL     0.0445
     11 N16        74.2161   41.4646    4.5577 N.pl3     1 MOL    -0.3432
     12 C3         75.5589   45.0055    7.3143 C.ar      1 MOL     0.0295
     13 C2         76.2886   45.5067    8.3951 C.ar      1 MOL     0.0108
     14 C1         77.0989   44.6566    9.1492 C.ar      1 MOL    -0.0171
     15 C11        78.7110   46.9355   11.4503 C.2       1 MOL     0.0459
     16 S9         79.0176   45.5513   12.3395 S.3       1 MOL    -0.1054
     17 H161       74.1935   40.4825    4.3228 H         1 MOL     0.1442
     18 H162       73.6976   42.1289    4.0011 H         1 MOL     0.1442
@<TRIPOS>BOND
     1    2    1 ar
     2    1    7 ar
     3    1   12 ar
     4    3    2 ar
     5    2    9 ar
     6   14    3 ar
     7    4    5 1 
     8    4    6 2 
     9    4   14 1 
    10    5   15 2 
    11    6   16 1 
    12    7    8 ar
    13    8   10 ar
    14    8   11 1 
    15    9   10 ar
    16   12   13 ar
    17   13   14 ar
    18   15   16 1 
    19   17   11 1 
    20   18   11 1 
@<TRIPOS>SUBSTRUCTURE
1 MOL         1
@<TRIPOS>MOLECULE
query molecule
   18    20     1     0     0
SMALL
NO_CHARGE

@<TRIPOS>ATOM
      1 C4         76.0337   43.9927    6.6991 C.ar      1 MOL     0.0725
      2 C5         76.8791   43.1367    7.4093 C.ar      1 MOL     0.0009
      3 C6         77.7256   43.6555    8.3895 C.ar      1 MOL     0.0187
      4 C7         78.5861   45.5643    9.6495 C.2       1 MOL    -0.0112
      5 C8         78.0872   45.9421   10.8611 C.2       1 MOL     0.0163
      6 C10        79.9198   45.7137    9.5514 C.2       1 MOL     0.0538
      7 N12        75.1976   43.5108    5.7653 N.ar      1 MOL    -0.2334
      8 C13        75.1474   42.1923    5.4790 C.ar      1 MOL     0.1153
      9 C15        76.8571   41.7689    7.1353 C.ar      1 MOL     0.0138
     10 C14        75.9794   41.2900    6.1549 C.ar      1 MOL     0.0445
     11 N16        74.3165   41.7548    4.5332 N.pl3     1 MOL    -0.3432
     12 C3         76.0422   45.3589    6.9770 C.ar      1 MOL     0.0295
     13 C2         76.8948   45.8793    7.9537 C.ar      1 MOL     0.0108
     14 C1         77.7539   45.0341    8.6577 C.ar      1 MOL    -0.0171
     15 C11        78.9376   46.4259   11.7801 C.2       1 MOL     0.0459
     16 S9         80.4385   46.3630   11.0425 S.3       1 MOL    -0.1054
     17 H161       74.2407   40.7652    4.3458 H         1 MOL     0.1442
     18 H162       73.7626   42.4128    4.0038 H         1 MOL     0.1442
@<TRIPOS>BOND
     1    2    1 ar
     2    1    7 ar
     3    1   12 ar
     4    3    2 ar
     5    2    9 ar
     6   14    3 ar
     7    4    5 1 
     8    4    6 2 
     9    4   14 1 
    10    5   15 2 
    11    6   16 1 
    12    7    8 ar
    13    8   10 ar
    14    8   11 1 
    15    9   10 ar
    16   12   13 ar
    17   13   14 ar
    18   15   16 1 
    19   17   11 1 
    20   18   11 1 
@<TRIPOS>SUBSTRUCTURE
1 MOL         1
@<TRIPOS>MOLECULE
query molecule
   18    20     1     0     0
SMALL
NO_CHARGE

@<TRIPOS>ATOM
      1 C4         75.6230   43.2069    6.8182 C.ar      1 MOL     0.0725
      2 C5         76.5252   42.3793    7.4913 C.ar      1 MOL     0.0009
      3 C6         77.3272   42.9076    8.5033 C.ar      1 MOL     0.0187
      4 C7         78.0409   44.8071    9.8650 C.2       1 MOL    -0.0112
      5 C8         78.3169   44.0913   10.9924 C.2       1 MOL     0.0163
      6 C10        78.6310   46.0161    9.8426 C.2       1 MOL     0.0538
      7 N12        74.8285   42.7138    5.8545 N.ar      1 MOL    -0.2334
      8 C13        74.8756   41.4114    5.5017 C.ar      1 MOL     0.1153
      9 C15        76.6040   41.0293    7.1485 C.ar      1 MOL     0.0138
     10 C14        75.7680   40.5386    6.1381 C.ar      1 MOL     0.0445
     11 N16        74.0830   40.9636    4.5282 N.pl3     1 MOL    -0.3432
     12 C3         75.5308   44.5542    7.1647 C.ar      1 MOL     0.0295
     13 C2         76.3389   45.0846    8.1733 C.ar      1 MOL     0.0108
     14 C1         77.2539   44.2692    8.8409 C.ar      1 MOL    -0.0171
     15 C11        79.0938   44.6528   11.9321 C.2       1 MOL     0.0459
     16 S9         79.4925   46.1542   11.3098 S.3       1 MOL    -0.1054
     17 H161       74.0803   39.9819    4.2906 H         1 MOL     0.1442
     18 H162       73.4851   41.6058    4.0280 H         1 MOL     0.1442
@<TRIPOS>BOND
     1    2    1 ar
     2    1    7 ar
     3    1   12 ar
     4    3    2 ar
     5    2    9 ar
     6   14    3 ar
     7    4    5 1 
     8    4    6 2 
     9    4   14 1 
    10    5   15 2 
    11    6   16 1 
    12    7    8 ar
    13    8   10 ar
    14    8   11 1 
    15    9   10 ar
    16   12   13 ar
    17   13   14 ar
    18   15   16 1 
    19   17   11 1 
    20   18   11 1 
@<TRIPOS>SUBSTRUCTURE
1 MOL         1
@<TRIPOS>MOLECULE
query molecule
   18    20     1     0     0
SMALL
NO_CHARGE

@<TRIPOS>ATOM
      1 C4         64.8909   47.0789   16.0442 C.ar      1 MOL     0.0725
      2 C5         64.1884   47.9935   15.2557 C.ar      1 MOL     0.0009
      3 C6         63.9047   49.2647   15.7558 C.ar      1 MOL     0.0187
      4 C7         64.0353   50.9077   17.5599 C.2       1 MOL    -0.0112
      5 C8         63.4215   51.0751   18.7662 C.2       1 MOL     0.0163
      6 C10        64.3802   52.0674   16.9712 C.2       1 MOL     0.0538
      7 N12        65.1907   45.8573   15.5741 N.ar      1 MOL    -0.2334
      8 C13        64.8234   45.4710   14.3337 C.ar      1 MOL     0.1153
      9 C15        63.7886   47.6257   13.9707 C.ar      1 MOL     0.0138
     10 C14        64.1097   46.3453   13.5035 C.ar      1 MOL     0.0445
     11 N16        65.1246   44.2438   13.9097 N.pl3     1 MOL    -0.3432
     12 C3         65.3039   47.4449   17.3245 C.ar      1 MOL     0.0295
     13 C2         65.0138   48.7154   17.8278 C.ar      1 MOL     0.0108
     14 C1         64.2992   49.6306   17.0533 C.ar      1 MOL    -0.0171
     15 C11        63.2123   52.3247   19.2091 C.2       1 MOL     0.0459
     16 S9         63.8588   53.3091   18.0202 S.3       1 MOL    -0.1054
     17 H161       64.3900   43.5674   13.7578 H         1 MOL     0.1442
     18 H162       66.0875   43.9901   13.7403 H         1 MOL     0.1442
@<TRIPOS>BOND
     1    2    1 ar
     2    1    7 ar
     3    1   12 ar
     4    3    2 ar
     5    2    9 ar
     6   14    3 ar
     7    4    5 1 
     8    4    6 2 
     9    4   14 1 
    10    5   15 2 
    11    6   16 1 
    12    7    8 ar
    13    8   10 ar
    14    8   11 1 
    15    9   10 ar
    16   12   13 ar
    17   13   14 ar
    18   15   16 1 
    19   17   11 1 
    20   18   11 1 
@<TRIPOS>SUBSTRUCTURE
1 MOL         1
@<TRIPOS>MOLECULE
query molecule
   18    20     1     0     0
SMALL
NO_CHARGE

@<TRIPOS>ATOM
      1 C4         64.8159   47.1269   15.8723 C.ar      1 MOL     0.0725
      2 C5         64.0390   47.9846   15.0897 C.ar      1 MOL     0.0009
      3 C6         63.6974   49.2469   15.5759 C.ar      1 MOL     0.0187
      4 C7         63.7861   50.9291   17.3462 C.2       1 MOL    -0.0112
      5 C8         64.4250   52.0447   16.8914 C.2       1 MOL     0.0163
      6 C10        62.8228   51.1957   18.2470 C.2       1 MOL     0.0538
      7 N12        65.1717   45.9155   15.4148 N.ar      1 MOL    -0.2334
      8 C13        64.7909   45.4852   14.1931 C.ar      1 MOL     0.1153
      9 C15        63.6234   47.5700   13.8241 C.ar      1 MOL     0.0138
     10 C14        64.0038   46.3012   13.3698 C.ar      1 MOL     0.0445
     11 N16        65.1497   44.2692   13.7816 N.pl3     1 MOL    -0.3432
     12 C3         65.2447   47.5404   17.1328 C.ar      1 MOL     0.0295
     13 C2         64.8968   48.8017   17.6225 C.ar      1 MOL     0.0108
     14 C1         64.1082   49.6596   16.8542 C.ar      1 MOL    -0.0171
     15 C11        64.0594   53.2375   17.3866 C.2       1 MOL     0.0459
     16 S9         62.8269   52.8889   18.4636 S.3       1 MOL    -0.1054
     17 H161       64.4511   43.5493   13.6640 H         1 MOL     0.1442
     18 H162       66.1201   44.0677   13.5874 H         1 MOL     0.1442
@<TRIPOS>BOND
     1    2    1 ar
     2    1    7 ar
     3    1   12 ar
     4    3    2 ar
     5    2    9 ar
     6   14    3 ar
     7    4    5 1 
     8    4    6 2 
     9    4   14 1 
    10    5   15 2 
    11    6   16 1 
    12    7    8 ar
    13    8   10 ar
    14    8   11 1 
    15    9   10 ar
    16   12   13 ar
    17   13   14 ar
    18   15   16 1 
    19   17   11 1 
    20   18   11 1 
@<TRIPOS>SUBSTRUCTURE
1 MOL         1
@<TRIPOS>MOLECULE
query molecule
   18    20     1     0     0
SMALL
NO_CHARGE

@<TRIPOS>ATOM
      1 C4         64.8378   47.4528   16.0367 C.ar      1 MOL     0.0725
      2 C5         64.1125   48.3554   15.2549 C.ar      1 MOL     0.0009
      3 C6         63.8234   49.6263   15.7526 C.ar      1 MOL     0.0187
      4 C7         63.9660   51.2809   17.5452 C.2       1 MOL    -0.0112
      5 C8         63.2473   51.4497   18.6919 C.2       1 MOL     0.0163
      6 C10        64.4016   52.4375   17.0134 C.2       1 MOL     0.0538
      7 N12        65.1430   46.2318   15.5686 N.ar      1 MOL    -0.2334
      8 C13        64.7594   45.8346   14.3366 C.ar      1 MOL     0.1153
      9 C15        63.6955   47.9760   13.9788 C.ar      1 MOL     0.0138
     10 C14        64.0227   46.6964   13.5134 C.ar      1 MOL     0.0445
     11 N16        65.0669   44.6083   13.9144 N.pl3     1 MOL    -0.3432
     12 C3         65.2680   47.8306   17.3080 C.ar      1 MOL     0.0295
     13 C2         64.9724   49.1008   17.8090 C.ar      1 MOL     0.0108
     14 C1         64.2353   50.0038   17.0414 C.ar      1 MOL    -0.0171
     15 C11        63.0375   52.6985   19.1370 C.2       1 MOL     0.0459
     16 S9         63.8241   53.6792   18.0324 S.3       1 MOL    -0.1054
     17 H161       65.4232   43.9242   14.5665 H         1 MOL     0.1442
     18 H162       64.9435   44.3630   12.9425 H         1 MOL     0.1442
@<TRIPOS>BOND
     1    2    1 ar
     2    1    7 ar
     3    1   12 ar
     4    3    2 ar
     5    2    9 ar
     6   14    3 ar
     7    4    5 1 
     8    4    6 2 
     9    4   14 1 
    10    5   15 2 
    11    6   16 1 
    12    7    8 ar
    13    8   10 ar
    14    8   11 1 
    15    9   10 ar
    16   12   13 ar
    17   13   14 ar
    18   15   16 1 
    19   17   11 1 
    20   18   11 1 
@<TRIPOS>SUBSTRUCTURE
1 MOL         1
@<TRIPOS>MOLECULE
query molecule
   18    20     1     0     0
SMALL
NO_CHARGE

@<TRIPOS>ATOM
      1 C4         72.2934   48.8975    9.2328 C.ar      1 MOL     0.0725
      2 C5         72.3137   50.1739    8.6653 C.ar      1 MOL     0.0009
      3 C6         71.3502   51.1123    9.0362 C.ar      1 MOL     0.0187
      4 C7         69.3829   51.7198   10.3522 C.2       1 MOL    -0.0112
      5 C8         68.9653   51.8018   11.6478 C.2       1 MOL     0.0163
      6 C10        68.8167   52.6397    9.5499 C.2       1 MOL     0.0538
      7 N12        73.2232   47.9863    8.9038 N.ar      1 MOL    -0.2334
      8 C13        74.2012   48.2678    8.0166 C.ar      1 MOL     0.1153
      9 C15        73.3072   50.4972    7.7407 C.ar      1 MOL     0.0138
     10 C14        74.2641   49.5296    7.4107 C.ar      1 MOL     0.0445
     11 N16        75.0957   47.3308    7.7029 N.pl3     1 MOL    -0.3432
     12 C3         71.3105   48.5724   10.1666 C.ar      1 MOL     0.0295
     13 C2         70.3415   49.5098   10.5328 C.ar      1 MOL     0.0108
     14 C1         70.3446   50.7825    9.9598 C.ar      1 MOL    -0.0171
     15 C11        68.0545   52.7342   11.9683 C.2       1 MOL     0.0459
     16 S9         67.7529   53.5418   10.5339 S.3       1 MOL    -0.1054
     17 H161       75.6739   47.4393    6.8818 H         1 MOL     0.1442
     18 H162       75.1955   46.5124    8.2861 H         1 MOL     0.1442
@<TRIPOS>BOND
     1    2    1 ar
     2    1    7 ar
     3    1   12 ar
     4    3    2 ar
     5    2    9 ar
     6   14    3 ar
     7    4    5 1 
     8    4    6 2 
     9    4   14 1 
    10    5   15 2 
    11    6   16 1 
    12    7    8 ar
    13    8   10 ar
    14    8   11 1 
    15    9   10 ar
    16   12   13 ar
    17   13   14 ar
    18   15   16 1 
    19   17   11 1 
    20   18   11 1 
@<TRIPOS>SUBSTRUCTURE
1 MOL         1
@<TRIPOS>MOLECULE
query molecule
   18    20     1     0     0
SMALL
NO_CHARGE

@<TRIPOS>ATOM
      1 C4         71.8617   49.1997    9.2893 C.ar      1 MOL     0.0725
      2 C5         71.9551   50.4307    8.6351 C.ar      1 MOL     0.0009
      3 C6         71.0008   51.4188    8.8791 C.ar      1 MOL     0.0187
      4 C7         68.9788   52.1722   10.0260 C.2       1 MOL    -0.0112
      5 C8         69.2840   53.4962    9.9095 C.2       1 MOL     0.0163
      6 C10        67.6960   51.9481   10.3649 C.2       1 MOL     0.0538
      7 N12        72.7808   48.2427    9.0830 N.ar      1 MOL    -0.2334
      8 C13        73.8177   48.4331    8.2396 C.ar      1 MOL     0.1153
      9 C15        73.0110   50.6596    7.7526 C.ar      1 MOL     0.0138
     10 C14        73.9553   49.6455    7.5509 C.ar      1 MOL     0.0445
     11 N16        74.6998   47.4523    8.0483 N.pl3     1 MOL    -0.3432
     12 C3         70.8157   48.9695   10.1818 C.ar      1 MOL     0.0295
     13 C2         69.8563   49.9565   10.4208 C.ar      1 MOL     0.0108
     14 C1         69.9326   51.1837    9.7605 C.ar      1 MOL    -0.0171
     15 C11        68.3219   54.3985   10.1585 C.2       1 MOL     0.0459
     16 S9         66.9715   53.4844   10.5347 S.3       1 MOL    -0.1054
     17 H161       74.4961   46.7105    7.3938 H         1 MOL     0.1442
     18 H162       75.5719   47.4510    8.5576 H         1 MOL     0.1442
@<TRIPOS>BOND
     1    2    1 ar
     2    1    7 ar
     3    1   12 ar
     4    3    2 ar
     5    2    9 ar
     6   14    3 ar
     7    4    5 1 
     8    4    6 2 
     9    4   14 1 
    10    5   15 2 
    11    6   16 1 
    12    7    8 ar
    13    8   10 ar
    14    8   11 1 
    15    9   10 ar
    16   12   13 ar
    17   13   14 ar
    18   15   16 1 
    19   17   11 1 
    20   18   11 1 
@<TRIPOS>SUBSTRUCTURE
1 MOL         1
@<TRIPOS>MOLECULE
query molecule
   18    20     1     0     0
SMALL
NO_CHARGE

@<TRIPOS>ATOM
      1 C4         72.1991   49.1891    9.4130 C.ar      1 MOL     0.0725
      2 C5         72.1173   50.3665    8.6654 C.ar      1 MOL     0.0009
      3 C6         71.1607   51.3286    8.9909 C.ar      1 MOL     0.0187
      4 C7         69.3100   52.0830   10.3971 C.2       1 MOL    -0.0112
      5 C8         69.4755   53.3928   10.0553 C.2       1 MOL     0.0163
      6 C10        68.1505   51.8404   11.0353 C.2       1 MOL     0.0538
      7 N12        73.1253   48.2595    9.1281 N.ar      1 MOL    -0.2334
      8 C13        74.0011   48.4265    8.1143 C.ar      1 MOL     0.1153
      9 C15        73.0034   50.5696    7.6072 C.ar      1 MOL     0.0138
     10 C14        73.9584   49.5845    7.3268 C.ar      1 MOL     0.0445
     11 N16        74.8946   47.4729    7.8518 N.pl3     1 MOL    -0.3432
     12 C3         71.3244   48.9860   10.4795 C.ar      1 MOL     0.0295
     13 C2         70.3620   49.9463   10.8010 C.ar      1 MOL     0.0108
     14 C1         70.2626   51.1187   10.0504 C.ar      1 MOL    -0.0171
     15 C11        68.5183   54.2689   10.3983 C.2       1 MOL     0.0459
     16 S9         67.3567   53.3454   11.1719 S.3       1 MOL    -0.1054
     17 H161       74.6304   46.6727    7.2950 H         1 MOL     0.1442
     18 H162       75.8358   47.5503    8.2098 H         1 MOL     0.1442
@<TRIPOS>BOND
     1    2    1 ar
     2    1    7 ar
     3    1   12 ar
     4    3    2 ar
     5    2    9 ar
     6   14    3 ar
     7    4    5 1 
     8    4    6 2 
     9    4   14 1 
    10    5   15 2 
    11    6   16 1 
    12    7    8 ar
    13    8   10 ar
    14    8   11 1 
    15    9   10 ar
    16   12   13 ar
    17   13   14 ar
    18   15   16 1 
    19   17   11 1 
    20   18   11 1 
@<TRIPOS>SUBSTRUCTURE
1 MOL         1
@<TRIPOS>MOLECULE
query molecule
   18    20     1     0     0
SMALL
NO_CHARGE

@<TRIPOS>ATOM
      1 C4         69.2105   47.5996    8.3011 C.ar      1 MOL     0.0725
      2 C5         68.5624   47.0076    7.2141 C.ar      1 MOL     0.0009
      3 C6         68.8005   45.6664    6.9124 C.ar      1 MOL     0.0187
      4 C7         69.9364   43.5572    7.3946 C.2       1 MOL    -0.0112
      5 C8         69.3679   42.5706    8.1450 C.2       1 MOL     0.0163
      6 C10        70.6751   43.0908    6.3712 C.2       1 MOL     0.0538
      7 N12        68.9803   48.8836    8.6198 N.ar      1 MOL    -0.2334
      8 C13        68.1239   49.6434    7.9043 C.ar      1 MOL     0.1153
      9 C15        67.6748   47.7652    6.4497 C.ar      1 MOL     0.0138
     10 C14        67.4534   49.1030    6.7991 C.ar      1 MOL     0.0445
     11 N16        67.9352   50.9190    8.2418 N.pl3     1 MOL    -0.3432
     12 C3         70.0892   46.8442    9.0763 C.ar      1 MOL     0.0295
     13 C2         70.3328   45.5031    8.7700 C.ar      1 MOL     0.0108
     14 C1         69.7018   44.9073    7.6769 C.ar      1 MOL    -0.0171
     15 C11        69.6141   41.2932    7.8140 C.2       1 MOL     0.0459
     16 S9         70.6017   41.3880    6.4663 S.3       1 MOL    -0.1054
     17 H161       68.7228   51.4931    8.5069 H         1 MOL     0.1442
     18 H162       67.0047   51.3116    8.2324 H         1 MOL     0.1442
@<TRIPOS>BOND
     1    2    1 ar
     2    1    7 ar
     3    1   12 ar
     4    3    2 ar
     5    2    9 ar
     6   14    3 ar
     7    4    5 1 
     8    4    6 2 
     9    4   14 1 
    10    5   15 2 
    11    6   16 1 
    12    7    8 ar
    13    8   10 ar
    14    8   11 1 
    15    9   10 ar
    16   12   13 ar
    17   13   14 ar
    18   15   16 1 
    19   17   11 1 
    20   18   11 1 
@<TRIPOS>SUBSTRUCTURE
1 MOL         1
@<TRIPOS>MOLECULE
query molecule
   18    20     1     0     0
SMALL
NO_CHARGE

@<TRIPOS>ATOM
      1 C4         69.0964   47.8271    8.3379 C.ar      1 MOL     0.0725
      2 C5         68.2314   47.2064    7.4332 C.ar      1 MOL     0.0009
      3 C6         68.3579   45.8403    7.1799 C.ar      1 MOL     0.0187
      4 C7         69.4866   43.7093    7.5755 C.2       1 MOL    -0.0112
      5 C8         70.5257   43.2104    6.8468 C.2       1 MOL     0.0163
      6 C10        68.6671   42.7572    8.0576 C.2       1 MOL     0.0538
      7 N12        68.9787   49.1368    8.6102 N.ar      1 MOL    -0.2334
      8 C13        68.0300   49.8954    8.0209 C.ar      1 MOL     0.1153
      9 C15        67.2426   47.9616    6.8020 C.ar      1 MOL     0.0138
     10 C14        67.1413   49.3262    7.0993 C.ar      1 MOL     0.0445
     11 N16        67.9563   51.1957    8.3043 N.pl3     1 MOL    -0.3432
     12 C3         70.0786   47.0753    8.9812 C.ar      1 MOL     0.0295
     13 C2         70.2097   45.7088    8.7222 C.ar      1 MOL     0.0108
     14 C1         69.3601   45.0831    7.8087 C.ar      1 MOL    -0.0171
     15 C11        70.6049   41.8817    6.6730 C.2       1 MOL     0.0459
     16 S9         69.2914   41.2666    7.5079 S.3       1 MOL    -0.1054
     17 H161       68.8006   51.7451    8.3785 H         1 MOL     0.1442
     18 H162       67.0562   51.6318    8.4448 H         1 MOL     0.1442
@<TRIPOS>BOND
     1    2    1 ar
     2    1    7 ar
     3    1   12 ar
     4    3    2 ar
     5    2    9 ar
     6   14    3 ar
     7    4    5 1 
     8    4    6 2 
     9    4   14 1 
    10    5   15 2 
    11    6   16 1 
    12    7    8 ar
    13    8   10 ar
    14    8   11 1 
    15    9   10 ar
    16   12   13 ar
    17   13   14 ar
    18   15   16 1 
    19   17   11 1 
    20   18   11 1 
@<TRIPOS>SUBSTRUCTURE
1 MOL         1
@<TRIPOS>MOLECULE
query molecule
   18    20     1     0     0
SMALL
NO_CHARGE

@<TRIPOS>ATOM
      1 C4         69.1093   47.7765    8.3554 C.ar      1 MOL     0.0725
      2 C5         68.3132   47.1403    7.3996 C.ar      1 MOL     0.0009
      3 C6         68.4906   45.7801    7.1448 C.ar      1 MOL     0.0187
      4 C7         69.6526   43.6768    7.5891 C.2       1 MOL    -0.0112
      5 C8         70.6370   43.2245    6.7608 C.2       1 MOL     0.0163
      6 C10        68.9398   42.6887    8.1602 C.2       1 MOL     0.0538
      7 N12        68.9412   49.0803    8.6292 N.ar      1 MOL    -0.2334
      8 C13        68.0068   49.8182    7.9927 C.ar      1 MOL     0.1153
      9 C15        67.3412   47.8739    6.7190 C.ar      1 MOL     0.0138
     10 C14        67.1867   49.2330    7.0190 C.ar      1 MOL     0.0445
     11 N16        67.8823   51.1137    8.2801 N.pl3     1 MOL    -0.3432
     12 C3         70.0739   47.0459    9.0478 C.ar      1 MOL     0.0295
     13 C2         70.2562   45.6855    8.7877 C.ar      1 MOL     0.0108
     14 C1         69.4762   45.0448    7.8238 C.ar      1 MOL    -0.0171
     15 C11        70.7700   41.8998    6.5898 C.2       1 MOL     0.0459
     16 S9         69.5845   41.2265    7.5602 S.3       1 MOL    -0.1054
     17 H161       68.7060   51.6847    8.4051 H         1 MOL     0.1442
     18 H162       66.9643   51.5246    8.3728 H         1 MOL     0.1442
@<TRIPOS>BOND
     1    2    1 ar
     2    1    7 ar
     3    1   12 ar
     4    3    2 ar
     5    2    9 ar
     6   14    3 ar
     7    4    5 1 
     8    4    6 2 
     9    4   14 1 
    10    5   15 2 
    11    6   16 1 
    12    7    8 ar
    13    8   10 ar
    14    8   11 1 
    15    9   10 ar
    16   12   13 ar
    17   13   14 ar
    18   15   16 1 
    19   17   11 1 
    20   18   11 1 
@<TRIPOS>SUBSTRUCTURE
1 MOL         1
@<TRIPOS>MOLECULE
query molecule
   18    20     1     0     0
SMALL
NO_CHARGE

@<TRIPOS>ATOM
      1 C4         67.4662   46.4614    7.8545 C.ar      1 MOL     0.0725
      2 C5         68.1243   47.5991    8.3282 C.ar      1 MOL     0.0009
      3 C6         67.3910   48.6261    8.9231 C.ar      1 MOL     0.0187
      4 C7         65.2486   49.5556    9.6428 C.2       1 MOL    -0.0112
      5 C8         64.1189   49.2731   10.3524 C.2       1 MOL     0.0163
      6 C10        65.5664   50.8631    9.6436 C.2       1 MOL     0.0538
      7 N12        68.1557   45.4534    7.2962 N.ar      1 MOL    -0.2334
      8 C13        69.4990   45.5048    7.1703 C.ar      1 MOL     0.1153
      9 C15        69.5115   47.6878    8.2094 C.ar      1 MOL     0.0138
     10 C14        70.2088   46.6257    7.6206 C.ar      1 MOL     0.0445
     11 N16        70.1459   44.4914    6.5948 N.pl3     1 MOL    -0.3432
     12 C3         66.0814   46.3614    7.9816 C.ar      1 MOL     0.0295
     13 C2         65.3464   47.3929    8.5711 C.ar      1 MOL     0.0108
     14 C1         65.9933   48.5399    9.0334 C.ar      1 MOL    -0.0171
     15 C11        63.4570   50.2874   10.9311 C.2       1 MOL     0.0459
     16 S9         64.3539   51.6487   10.5528 S.3       1 MOL    -0.1054
     17 H161       71.0700   44.6340    6.2130 H         1 MOL     0.1442
     18 H162       69.7120   43.5810    6.5404 H         1 MOL     0.1442
@<TRIPOS>BOND
     1    2    1 ar
     2    1    7 ar
     3    1   12 ar
     4    3    2 ar
     5    2    9 ar
     6   14    3 ar
     7    4    5 1 
     8    4    6 2 
     9    4   14 1 
    10    5   15 2 
    11    6   16 1 
    12    7    8 ar
    13    8   10 ar
    14    8   11 1 
    15    9   10 ar
    16   12   13 ar
    17   13   14 ar
    18   15   16 1 
    19   17   11 1 
    20   18   11 1 
@<TRIPOS>SUBSTRUCTURE
1 MOL         1
@<TRIPOS>MOLECULE
query molecule
   18    20     1     0     0
SMALL
NO_CHARGE

@<TRIPOS>ATOM
      1 C4         67.5629   46.4362    7.8881 C.ar      1 MOL     0.0725
      2 C5         68.0759   47.6772    8.2737 C.ar      1 MOL     0.0009
      3 C6         67.2387   48.6149    8.8790 C.ar      1 MOL     0.0187
      4 C7         65.0325   49.2600    9.7083 C.2       1 MOL    -0.0112
      5 C8         65.2313   50.6019    9.5682 C.2       1 MOL     0.0163
      6 C10        63.9469   48.9552   10.4425 C.2       1 MOL     0.0538
      7 N12        68.3563   45.5127    7.3217 N.ar      1 MOL    -0.2334
      8 C13        69.6672   45.7503    7.1028 C.ar      1 MOL     0.1153
      9 C15        69.4251   47.9583    8.0574 C.ar      1 MOL     0.0138
     10 C14        70.2322   46.9810    7.4621 C.ar      1 MOL     0.0445
     11 N16        70.4182   44.8146    6.5222 N.pl3     1 MOL    -0.3432
     12 C3         66.2181   46.1447    8.1128 C.ar      1 MOL     0.0295
     13 C2         65.3783   47.0864    8.7127 C.ar      1 MOL     0.0108
     14 C1         65.8782   48.3345    9.0873 C.ar      1 MOL    -0.0171
     15 C11        64.3754   51.4415   10.1716 C.2       1 MOL     0.0459
     16 S9         63.2645   50.4431   10.9264 S.3       1 MOL    -0.1054
     17 H161       71.2861   45.0703    6.0733 H         1 MOL     0.1442
     18 H162       70.1194   43.8499    6.5310 H         1 MOL     0.1442
@<TRIPOS>BOND
     1    2    1 ar
     2    1    7 ar
     3    1   12 ar
     4    3    2 ar
     5    2    9 ar
     6   14    3 ar
     7    4    5 1 
     8    4    6 2 
     9    4   14 1 
    10    5   15 2 
    11    6   16 1 
    12    7    8 ar
    13    8   10 ar
    14    8   11 1 
    15    9   10 ar
    16   12   13 ar
    17   13   14 ar
    18   15   16 1 
    19   17   11 1 
    20   18   11 1 
@<TRIPOS>SUBSTRUCTURE
1 MOL         1
@<TRIPOS>MOLECULE
query molecule
   18    20     1     0     0
SMALL
NO_CHARGE

@<TRIPOS>ATOM
      1 C4         67.5073   46.4178    7.8625 C.ar      1 MOL     0.0725
      2 C5         68.0585   47.6024    8.3573 C.ar      1 MOL     0.0009
      3 C6         67.2441   48.5217    9.0192 C.ar      1 MOL     0.0187
      4 C7         65.0455   49.1868    9.8528 C.2       1 MOL    -0.0112
      5 C8         65.2959   50.5270    9.8210 C.2       1 MOL     0.0163
      6 C10        63.9348   48.8677   10.5421 C.2       1 MOL     0.0538
      7 N12        68.2777   45.5113    7.2396 N.ar      1 MOL    -0.2334
      8 C13        69.6016   45.7126    7.0673 C.ar      1 MOL     0.1153
      9 C15        69.4223   47.8453    8.1919 C.ar      1 MOL     0.0138
     10 C14        70.2049   46.8870    7.5362 C.ar      1 MOL     0.0445
     11 N16        70.3294   44.7968    6.4284 N.pl3     1 MOL    -0.3432
     12 C3         66.1475   46.1637    8.0356 C.ar      1 MOL     0.0295
     13 C2         65.3307   47.0875    8.6922 C.ar      1 MOL     0.0108
     14 C1         65.8693   48.2805    9.1765 C.ar      1 MOL    -0.0171
     15 C11        64.4591   51.3494   10.4730 C.2       1 MOL     0.0459
     16 S9         63.2975   50.3387   11.1284 S.3       1 MOL    -0.1054
     17 H161       71.2169   45.0524    6.0195 H         1 MOL     0.1442
     18 H162       69.9936   43.8472    6.3533 H         1 MOL     0.1442
@<TRIPOS>BOND
     1    2    1 ar
     2    1    7 ar
     3    1   12 ar
     4    3    2 ar
     5    2    9 ar
     6   14    3 ar
     7    4    5 1 
     8    4    6 2 
     9    4   14 1 
    10    5   15 2 
    11    6   16 1 
    12    7    8 ar
    13    8   10 ar
    14    8   11 1 
    15    9   10 ar
    16   12   13 ar
    17   13   14 ar
    18   15   16 1 
    19   17   11 1 
    20   18   11 1 
@<TRIPOS>SUBSTRUCTURE
1 MOL         1
@<TRIPOS>MOLECULE
query molecule
   18    20     1     0     0
SMALL
NO_CHARGE

@<TRIPOS>ATOM
      1 C4         61.8611   46.1584   13.6531 C.ar      1 MOL     0.0725
      2 C5         60.9446   46.1099   12.5997 C.ar      1 MOL     0.0009
      3 C6         61.3895   46.2678   11.2868 C.ar      1 MOL     0.0187
      4 C7         63.2086   46.6399    9.6981 C.2       1 MOL    -0.0112
      5 C8         63.2327   45.5807    8.8395 C.2       1 MOL     0.0163
      6 C10        63.6181   47.7919    9.1361 C.2       1 MOL     0.0538
      7 N12        61.4560   45.9893   14.9222 N.ar      1 MOL    -0.2334
      8 C13        60.1580   45.7720   15.2233 C.ar      1 MOL     0.1153
      9 C15        59.5944   45.8923   12.8753 C.ar      1 MOL     0.0138
     10 C14        59.1952   45.7223   14.2066 C.ar      1 MOL     0.0445
     11 N16        59.7927   45.6262   16.4969 N.pl3     1 MOL    -0.3432
     12 C3         63.2135   46.3631   13.3831 C.ar      1 MOL     0.0295
     13 C2         63.6579   46.5282   12.0690 C.ar      1 MOL     0.0108
     14 C1         62.7478   46.4965   11.0113 C.ar      1 MOL    -0.0171
     15 C11        63.6671   45.7837    7.5858 C.2       1 MOL     0.0459
     16 S9         64.0337   47.4154    7.5238 S.3       1 MOL    -0.1054
     17 H161       59.1686   44.8772   16.7607 H         1 MOL     0.1442
     18 H162       60.1400   46.2647   17.1981 H         1 MOL     0.1442
@<TRIPOS>BOND
     1    2    1 ar
     2    1    7 ar
     3    1   12 ar
     4    3    2 ar
     5    2    9 ar
     6   14    3 ar
     7    4    5 1 
     8    4    6 2 
     9    4   14 1 
    10    5   15 2 
    11    6   16 1 
    12    7    8 ar
    13    8   10 ar
    14    8   11 1 
    15    9   10 ar
    16   12   13 ar
    17   13   14 ar
    18   15   16 1 
    19   17   11 1 
    20   18   11 1 
@<TRIPOS>SUBSTRUCTURE
1 MOL         1
@<TRIPOS>MOLECULE
query molecule
   18    20     1     0     0
SMALL
NO_CHARGE

@<TRIPOS>ATOM
      1 C4         61.8611   46.1584   13.6531 C.ar      1 MOL     0.0725
      2 C5         60.9446   46.1099   12.5997 C.ar      1 MOL     0.0009
      3 C6         61.3895   46.2678   11.2868 C.ar      1 MOL     0.0187
      4 C7         63.2086   46.6399    9.6981 C.2       1 MOL    -0.0112
      5 C8         63.2327   45.5807    8.8395 C.2       1 MOL     0.0163
      6 C10        63.6181   47.7919    9.1361 C.2       1 MOL     0.0538
      7 N12        61.4560   45.9893   14.9222 N.ar      1 MOL    -0.2334
      8 C13        60.1580   45.7720   15.2233 C.ar      1 MOL     0.1153
      9 C15        59.5944   45.8923   12.8753 C.ar      1 MOL     0.0138
     10 C14        59.1952   45.7223   14.2066 C.ar      1 MOL     0.0445
     11 N16        59.7927   45.6262   16.4969 N.pl3     1 MOL    -0.3432
     12 C3         63.2135   46.3631   13.3831 C.ar      1 MOL     0.0295
     13 C2         63.6579   46.5282   12.0690 C.ar      1 MOL     0.0108
     14 C1         62.7478   46.4965   11.0113 C.ar      1 MOL    -0.0171
     15 C11        63.6671   45.7837    7.5858 C.2       1 MOL     0.0459
     16 S9         64.0337   47.4154    7.5238 S.3       1 MOL    -0.1054
     17 H161       58.8576   45.8759   16.7858 H         1 MOL     0.1442
     18 H162       60.4509   45.2661   17.1730 H         1 MOL     0.1442
@<TRIPOS>BOND
     1    2    1 ar
     2    1    7 ar
     3    1   12 ar
     4    3    2 ar
     5    2    9 ar
     6   14    3 ar
     7    4    5 1 
     8    4    6 2 
     9    4   14 1 
    10    5   15 2 
    11    6   16 1 
    12    7    8 ar
    13    8   10 ar
    14    8   11 1 
    15    9   10 ar
    16   12   13 ar
    17   13   14 ar
    18   15   16 1 
    19   17   11 1 
    20   18   11 1 
@<TRIPOS>SUBSTRUCTURE
1 MOL         1
@<TRIPOS>MOLECULE
query molecule
   18    20     1     0     0
SMALL
NO_CHARGE

@<TRIPOS>ATOM
      1 C4         61.9269   46.1800   13.6592 C.ar      1 MOL     0.0725
      2 C5         61.0099   46.1212   12.6067 C.ar      1 MOL     0.0009
      3 C6         61.4548   46.2623   11.2919 C.ar      1 MOL     0.0187
      4 C7         63.2742   46.6107    9.6983 C.2       1 MOL    -0.0112
      5 C8         63.5138   45.5125    8.9261 C.2       1 MOL     0.0163
      6 C10        63.4808   47.7727    9.0521 C.2       1 MOL     0.0538
      7 N12        61.5218   46.0271   14.9303 N.ar      1 MOL    -0.2334
      8 C13        60.2233   45.8167   15.2344 C.ar      1 MOL     0.1153
      9 C15        59.6593   45.9104   12.8853 C.ar      1 MOL     0.0138
     10 C14        59.2601   45.7573   14.2187 C.ar      1 MOL     0.0445
     11 N16        59.8581   45.6872   16.5098 N.pl3     1 MOL    -0.3432
     12 C3         63.2797   46.3780   13.3864 C.ar      1 MOL     0.0295
     13 C2         63.7241   46.5262   12.0702 C.ar      1 MOL     0.0108
     14 C1         62.8136   46.4842   11.0133 C.ar      1 MOL    -0.0171
     15 C11        63.9361   45.6970    7.6655 C.2       1 MOL     0.0459
     16 S9         63.9998   47.3589    7.4794 S.3       1 MOL    -0.1054
     17 H161       60.1342   46.3834   17.1874 H         1 MOL     0.1442
     18 H162       59.3054   44.8928   16.7986 H         1 MOL     0.1442
@<TRIPOS>BOND
     1    2    1 ar
     2    1    7 ar
     3    1   12 ar
     4    3    2 ar
     5    2    9 ar
     6   14    3 ar
     7    4    5 1 
     8    4    6 2 
     9    4   14 1 
    10    5   15 2 
    11    6   16 1 
    12    7    8 ar
    13    8   10 ar
    14    8   11 1 
    15    9   10 ar
    16   12   13 ar
    17   13   14 ar
    18   15   16 1 
    19   17   11 1 
    20   18   11 1 
@<TRIPOS>SUBSTRUCTURE
1 MOL         1
@<TRIPOS>MOLECULE
query molecule
   18    20     1     0     0
SMALL
NO_CHARGE

@<TRIPOS>ATOM
      1 C4         70.0893   41.3645    8.2267 C.ar      1 MOL     0.0725
      2 C5         71.4052   41.2306    8.6766 C.ar      1 MOL     0.0009
      3 C6         72.4116   40.8755    7.7780 C.ar      1 MOL     0.0187
      4 C7         73.1175   40.2893    5.5131 C.2       1 MOL    -0.0112
      5 C8         73.2580   39.0091    5.0646 C.2       1 MOL     0.0163
      6 C10        73.9907   41.1485    4.9567 C.2       1 MOL     0.0538
      7 N12        69.1095   41.7243    9.0716 N.ar      1 MOL    -0.2334
      8 C13        69.3587   41.9639   10.3767 C.ar      1 MOL     0.1153
      9 C15        71.6975   41.4654   10.0204 C.ar      1 MOL     0.0138
     10 C14        70.6588   41.8362   10.8832 C.ar      1 MOL     0.0445
     11 N16        68.3562   42.3021   11.1874 N.pl3     1 MOL    -0.3432
     12 C3         69.7930   41.1432    6.8825 C.ar      1 MOL     0.0295
     13 C2         70.7997   40.7809    5.9841 C.ar      1 MOL     0.0108
     14 C1         72.1145   40.6297    6.4272 C.ar      1 MOL    -0.0171
     15 C11        74.2264   38.7467    4.1730 C.2       1 MOL     0.0459
     16 S9         74.9601   40.2253    3.8975 S.3       1 MOL    -0.1054
     17 H161       67.9751   43.2370   11.1565 H         1 MOL     0.1442
     18 H162       67.9776   41.6236   11.8326 H         1 MOL     0.1442
@<TRIPOS>BOND
     1    2    1 ar
     2    1    7 ar
     3    1   12 ar
     4    3    2 ar
     5    2    9 ar
     6   14    3 ar
     7    4    5 1 
     8    4    6 2 
     9    4   14 1 
    10    5   15 2 
    11    6   16 1 
    12    7    8 ar
    13    8   10 ar
    14    8   11 1 
    15    9   10 ar
    16   12   13 ar
    17   13   14 ar
    18   15   16 1 
    19   17   11 1 
    20   18   11 1 
@<TRIPOS>SUBSTRUCTURE
1 MOL         1
@<TRIPOS>MOLECULE
query molecule
   18    20     1     0     0
SMALL
NO_CHARGE

@<TRIPOS>ATOM
      1 C4         70.0935   41.3632    8.2353 C.ar      1 MOL     0.0725
      2 C5         71.4061   41.2308    8.6953 C.ar      1 MOL     0.0009
      3 C6         72.4205   40.8807    7.8037 C.ar      1 MOL     0.0187
      4 C7         73.1458   40.3031    5.5428 C.2       1 MOL    -0.0112
      5 C8         73.3476   39.0105    5.1578 C.2       1 MOL     0.0163
      6 C10        73.9692   41.1759    4.9340 C.2       1 MOL     0.0538
      7 N12        69.1062   41.7182    9.0733 N.ar      1 MOL    -0.2334
      8 C13        69.3442   41.9544   10.3811 C.ar      1 MOL     0.1153
      9 C15        71.6870   41.4622   10.0421 C.ar      1 MOL     0.0138
     10 C14        70.6405   41.8280   10.8976 C.ar      1 MOL     0.0445
     11 N16        68.3345   42.2878   11.1847 N.pl3     1 MOL    -0.3432
     12 C3         69.8086   41.1454    6.8880 C.ar      1 MOL     0.0295
     13 C2         70.8233   40.7880    5.9966 C.ar      1 MOL     0.0108
     14 C1         72.1348   40.6385    6.4499 C.ar      1 MOL    -0.0171
     15 C11        74.3204   38.7523    4.2697 C.2       1 MOL     0.0459
     16 S9         74.9752   40.2502    3.9118 S.3       1 MOL    -0.1054
     17 H161       68.0293   43.2491   11.2400 H         1 MOL     0.1442
     18 H162       67.8745   41.5794   11.7384 H         1 MOL     0.1442
@<TRIPOS>BOND
     1    2    1 ar
     2    1    7 ar
     3    1   12 ar
     4    3    2 ar
     5    2    9 ar
     6   14    3 ar
     7    4    5 1 
     8    4    6 2 
     9    4   14 1 
    10    5   15 2 
    11    6   16 1 
    12    7    8 ar
    13    8   10 ar
    14    8   11 1 
    15    9   10 ar
    16   12   13 ar
    17   13   14 ar
    18   15   16 1 
    19   17   11 1 
    20   18   11 1 
@<TRIPOS>SUBSTRUCTURE
1 MOL         1
@<TRIPOS>MOLECULE
query molecule
   18    20     1     0     0
SMALL
NO_CHARGE

@<TRIPOS>ATOM
      1 C4         69.9616   41.3174    7.9083 C.ar      1 MOL     0.0725
      2 C5         71.2603   41.2246    8.4148 C.ar      1 MOL     0.0009
      3 C6         72.3139   40.8919    7.5629 C.ar      1 MOL     0.0187
      4 C7         73.1323   40.3097    5.3352 C.2       1 MOL    -0.0112
      5 C8         74.1149   41.2132    5.0561 C.2       1 MOL     0.0163
      6 C10        73.3178   39.1181    4.7384 C.2       1 MOL     0.0538
      7 N12        68.9368   41.6551    8.7076 N.ar      1 MOL    -0.2334
      8 C13        69.1229   41.9113   10.0200 C.ar      1 MOL     0.1153
      9 C15        71.4880   41.4775    9.7678 C.ar      1 MOL     0.0138
     10 C14        70.4033   41.8246   10.5824 C.ar      1 MOL     0.0445
     11 N16        68.0775   42.2265   10.7844 N.pl3     1 MOL    -0.3432
     12 C3         69.7295   41.0779    6.5546 C.ar      1 MOL     0.0295
     13 C2         70.7836   40.7380    5.7029 C.ar      1 MOL     0.0108
     14 C1         72.0820   40.6279    6.2029 C.ar      1 MOL    -0.0171
     15 C11        75.1075   40.8439    4.2314 C.2       1 MOL     0.0459
     16 S9         74.7547   39.2587    3.8276 S.3       1 MOL    -0.1054
     17 H161       67.7457   43.1799   10.8181 H         1 MOL     0.1442
     18 H162       67.6171   41.5120   11.3299 H         1 MOL     0.1442
@<TRIPOS>BOND
     1    2    1 ar
     2    1    7 ar
     3    1   12 ar
     4    3    2 ar
     5    2    9 ar
     6   14    3 ar
     7    4    5 1 
     8    4    6 2 
     9    4   14 1 
    10    5   15 2 
    11    6   16 1 
    12    7    8 ar
    13    8   10 ar
    14    8   11 1 
    15    9   10 ar
    16   12   13 ar
    17   13   14 ar
    18   15   16 1 
    19   17   11 1 
    20   18   11 1 
@<TRIPOS>SUBSTRUCTURE
1 MOL         1
@<TRIPOS>MOLECULE
query molecule
   18    20     1     0     0
SMALL
NO_CHARGE

@<TRIPOS>ATOM
      1 C4         72.7231   46.0547    6.9063 C.ar      1 MOL     0.0725
      2 C5         73.2041   47.3661    6.8778 C.ar      1 MOL     0.0009
      3 C6         73.0292   48.1922    7.9884 C.ar      1 MOL     0.0187
      4 C7         72.1885   48.5411   10.2562 C.2       1 MOL    -0.0112
      5 C8         71.3578   49.6222   10.2284 C.2       1 MOL     0.0163
      6 C10        72.7607   48.3385   11.4570 C.2       1 MOL     0.0538
      7 N12        72.8983   45.2375    5.8553 N.ar      1 MOL    -0.2334
      8 C13        73.5372   45.6521    4.7405 C.ar      1 MOL     0.1153
      9 C15        73.8645   47.8293    5.7396 C.ar      1 MOL     0.0138
     10 C14        74.0323   46.9601    4.6547 C.ar      1 MOL     0.0445
     11 N16        73.6760   44.8165    3.7114 N.pl3     1 MOL    -0.3432
     12 C3         72.0732   45.5820    8.0456 C.ar      1 MOL     0.0295
     13 C2         71.8920   46.4115    9.1550 C.ar      1 MOL     0.0108
     14 C1         72.3555   47.7277    9.1301 C.ar      1 MOL    -0.0171
     15 C11        71.2230   50.3538   11.3457 C.2       1 MOL     0.0459
     16 S9         72.1964   49.5895   12.4721 S.3       1 MOL    -0.1054
     17 H161       74.5957   44.5030    3.4360 H         1 MOL     0.1442
     18 H162       72.8615   44.4968    3.2071 H         1 MOL     0.1442
@<TRIPOS>BOND
     1    2    1 ar
     2    1    7 ar
     3    1   12 ar
     4    3    2 ar
     5    2    9 ar
     6   14    3 ar
     7    4    5 1 
     8    4    6 2 
     9    4   14 1 
    10    5   15 2 
    11    6   16 1 
    12    7    8 ar
    13    8   10 ar
    14    8   11 1 
    15    9   10 ar
    16   12   13 ar
    17   13   14 ar
    18   15   16 1 
    19   17   11 1 
    20   18   11 1 
@<TRIPOS>SUBSTRUCTURE
1 MOL         1
@<TRIPOS>MOLECULE
query molecule
   18    20     1     0     0
SMALL
NO_CHARGE

@<TRIPOS>ATOM
      1 C4         72.6495   46.0302    6.4730 C.ar      1 MOL     0.0725
      2 C5         73.1800   47.3196    6.5616 C.ar      1 MOL     0.0009
      3 C6         73.0145   48.0576    7.7340 C.ar      1 MOL     0.0187
      4 C7         72.1427   48.2510   10.0086 C.2       1 MOL    -0.0112
      5 C8         73.1212   48.2716   10.9582 C.2       1 MOL     0.0163
      6 C10        71.0798   49.0148   10.3210 C.2       1 MOL     0.0538
      7 N12        72.8146   45.2962    5.3607 N.ar      1 MOL    -0.2334
      8 C13        73.4906   45.7760    4.2951 C.ar      1 MOL     0.1153
      9 C15        73.8799   47.8489    5.4770 C.ar      1 MOL     0.0138
     10 C14        74.0363   47.0661    4.3265 C.ar      1 MOL     0.0445
     11 N16        73.6182   45.0232    3.2025 N.pl3     1 MOL    -0.3432
     12 C3         71.9598   45.4911    7.5581 C.ar      1 MOL     0.0295
     13 C2         71.7880   46.2328    8.7295 C.ar      1 MOL     0.0108
     14 C1         72.3012   47.5274    8.8218 C.ar      1 MOL    -0.0171
     15 C11        72.9201   48.9996   12.0679 C.2       1 MOL     0.0459
     16 S9         71.4138   49.6954   11.8504 S.3       1 MOL    -0.1054
     17 H161       73.0156   44.2241    3.0666 H         1 MOL     0.1442
     18 H162       74.3174   45.2519    2.5105 H         1 MOL     0.1442
@<TRIPOS>BOND
     1    2    1 ar
     2    1    7 ar
     3    1   12 ar
     4    3    2 ar
     5    2    9 ar
     6   14    3 ar
     7    4    5 1 
     8    4    6 2 
     9    4   14 1 
    10    5   15 2 
    11    6   16 1 
    12    7    8 ar
    13    8   10 ar
    14    8   11 1 
    15    9   10 ar
    16   12   13 ar
    17   13   14 ar
    18   15   16 1 
    19   17   11 1 
    20   18   11 1 
@<TRIPOS>SUBSTRUCTURE
1 MOL         1
@<TRIPOS>MOLECULE
query molecule
   18    20     1     0     0
SMALL
NO_CHARGE

@<TRIPOS>ATOM
      1 C4         72.6532   46.3326    6.6946 C.ar      1 MOL     0.0725
      2 C5         73.0061   47.6815    6.6064 C.ar      1 MOL     0.0009
      3 C6         72.7240   48.5420    7.6677 C.ar      1 MOL     0.0187
      4 C7         71.7956   48.9222    9.8959 C.2       1 MOL    -0.0112
      5 C8         72.6278   48.9836   10.9744 C.2       1 MOL     0.0163
      6 C10        70.7568   49.7738    9.9742 C.2       1 MOL     0.0538
      7 N12        72.9332   45.4840    5.6922 N.ar      1 MOL    -0.2334
      8 C13        73.5577   45.9017    4.5705 C.ar      1 MOL     0.1153
      9 C15        73.6479   48.1485    5.4590 C.ar      1 MOL     0.0138
     10 C14        73.9265   47.2456    4.4255 C.ar      1 MOL     0.0445
     11 N16        73.8027   45.0324    3.5903 N.pl3     1 MOL    -0.3432
     12 C3         72.0227   45.8573    7.8437 C.ar      1 MOL     0.0295
     13 C2         71.7340   46.7206    8.9035 C.ar      1 MOL     0.0108
     14 C1         72.0690   48.0728    8.8183 C.ar      1 MOL    -0.0171
     15 C11        72.3236   49.8318   11.9692 C.2       1 MOL     0.0459
     16 S9         70.9176   50.5872   11.4663 S.3       1 MOL    -0.1054
     17 H161       73.7670   45.3340    2.6271 H         1 MOL     0.1442
     18 H162       74.0241   44.0719    3.8108 H         1 MOL     0.1442
@<TRIPOS>BOND
     1    2    1 ar
     2    1    7 ar
     3    1   12 ar
     4    3    2 ar
     5    2    9 ar
     6   14    3 ar
     7    4    5 1 
     8    4    6 2 
     9    4   14 1 
    10    5   15 2 
    11    6   16 1 
    12    7    8 ar
    13    8   10 ar
    14    8   11 1 
    15    9   10 ar
    16   12   13 ar
    17   13   14 ar
    18   15   16 1 
    19   17   11 1 
    20   18   11 1 
@<TRIPOS>SUBSTRUCTURE
1 MOL         1
@<TRIPOS>MOLECULE
query molecule
   18    20     1     0     0
SMALL
NO_CHARGE

@<TRIPOS>ATOM
      1 C4         69.4446   50.8859   12.3134 C.ar      1 MOL     0.0725
      2 C5         68.9018   50.7462   11.0336 C.ar      1 MOL     0.0009
      3 C6         69.7399   50.4743    9.9518 C.ar      1 MOL     0.0187
      4 C7         71.9773   50.0706    9.0560 C.2       1 MOL    -0.0112
      5 C8         73.3134   49.8742    9.2460 C.2       1 MOL     0.0163
      6 C10        71.5912   49.9118    7.7769 C.2       1 MOL     0.0538
      7 N12        68.6530   51.1285   13.3706 N.ar      1 MOL    -0.2334
      8 C13        67.3152   51.2490   13.2350 C.ar      1 MOL     0.1153
      9 C15        67.5236   50.8700   10.8562 C.ar      1 MOL     0.0138
     10 C14        66.7188   51.1265   11.9731 C.ar      1 MOL     0.0445
     11 N16        66.5651   51.5072   14.3061 N.pl3     1 MOL    -0.3432
     12 C3         70.8197   50.7509   12.4989 C.ar      1 MOL     0.0295
     13 C2         71.6596   50.4855   11.4145 C.ar      1 MOL     0.0108
     14 C1         71.1285   50.3595   10.1300 C.ar      1 MOL    -0.0171
     15 C11        74.0744   49.5807    8.1800 C.2       1 MOL     0.0459
     16 S9         73.0039   49.5389    6.8943 S.3       1 MOL    -0.1054
     17 H161       66.1510   52.4208   14.4243 H         1 MOL     0.1442
     18 H162       66.4107   50.7893   14.9995 H         1 MOL     0.1442
@<TRIPOS>BOND
     1    2    1 ar
     2    1    7 ar
     3    1   12 ar
     4    3    2 ar
     5    2    9 ar
     6   14    3 ar
     7    4    5 1 
     8    4    6 2 
     9    4   14 1 
    10    5   15 2 
    11    6   16 1 
    12    7    8 ar
    13    8   10 ar
    14    8   11 1 
    15    9   10 ar
    16   12   13 ar
    17   13   14 ar
    18   15   16 1 
    19   17   11 1 
    20   18   11 1 
@<TRIPOS>SUBSTRUCTURE
1 MOL         1
@<TRIPOS>MOLECULE
query molecule
   18    20     1     0     0
SMALL
NO_CHARGE

@<TRIPOS>ATOM
      1 C4         69.7719   50.8942   12.6420 C.ar      1 MOL     0.0725
      2 C5         69.3829   50.6332   11.3257 C.ar      1 MOL     0.0009
      3 C6         70.3392   50.2543   10.3831 C.ar      1 MOL     0.0187
      4 C7         72.6607   49.7569    9.8045 C.2       1 MOL    -0.0112
      5 C8         73.4737   48.6880   10.0414 C.2       1 MOL     0.0163
      6 C10        72.8626   50.3247    8.6015 C.2       1 MOL     0.0538
      7 N12        68.8642   51.2413   13.5687 N.ar      1 MOL    -0.2334
      8 C13        67.5540   51.3533   13.2630 C.ar      1 MOL     0.1153
      9 C15        68.0376   50.7446   10.9736 C.ar      1 MOL     0.0138
     10 C14        67.1099   51.1113   11.9563 C.ar      1 MOL     0.0445
     11 N16        66.6861   51.7171   14.2069 N.pl3     1 MOL    -0.3432
     12 C3         71.1130   50.7724   13.0029 C.ar      1 MOL     0.0295
     13 C2         72.0716   50.3998   12.0573 C.ar      1 MOL     0.0108
     14 C1         71.6949   50.1519   10.7365 C.ar      1 MOL    -0.0171
     15 C11        74.3683   48.3445    9.1015 C.2       1 MOL     0.0459
     16 S9         74.1216   49.4409    7.8615 S.3       1 MOL    -0.1054
     17 H161       66.2750   52.6395   14.1866 H         1 MOL     0.1442
     18 H162       66.4393   51.0704   14.9424 H         1 MOL     0.1442
@<TRIPOS>BOND
     1    2    1 ar
     2    1    7 ar
     3    1   12 ar
     4    3    2 ar
     5    2    9 ar
     6   14    3 ar
     7    4    5 1 
     8    4    6 2 
     9    4   14 1 
    10    5   15 2 
    11    6   16 1 
    12    7    8 ar
    13    8   10 ar
    14    8   11 1 
    15    9   10 ar
    16   12   13 ar
    17   13   14 ar
    18   15   16 1 
    19   17   11 1 
    20   18   11 1 
@<TRIPOS>SUBSTRUCTURE
1 MOL         1
@<TRIPOS>MOLECULE
query molecule
   18    20     1     0     0
SMALL
NO_CHARGE

@<TRIPOS>ATOM
      1 C4         70.0936   50.7573   12.5173 C.ar      1 MOL     0.0725
      2 C5         69.7313   50.5559   11.1831 C.ar      1 MOL     0.0009
      3 C6         70.6952   50.1583   10.2561 C.ar      1 MOL     0.0187
      4 C7         73.0054   49.5630    9.7272 C.2       1 MOL    -0.0112
      5 C8         73.0435   50.0698    8.4617 C.2       1 MOL     0.0163
      6 C10        74.0000   48.6939    9.9841 C.2       1 MOL     0.0538
      7 N12        69.1772   51.1213   13.4288 N.ar      1 MOL    -0.2334
      8 C13        67.8836   51.3079   13.0902 C.ar      1 MOL     0.1153
      9 C15        68.4040   50.7450   10.7972 C.ar      1 MOL     0.0138
     10 C14        67.4669   51.1279   11.7647 C.ar      1 MOL     0.0445
     11 N16        67.0071   51.6860   14.0205 N.pl3     1 MOL    -0.3432
     12 C3         71.4159   50.5578   12.9115 C.ar      1 MOL     0.0295
     13 C2         72.3825   50.1664   11.9818 C.ar      1 MOL     0.0108
     14 C1         72.0331   49.9776   10.6438 C.ar      1 MOL    -0.0171
     15 C11        74.0116   49.6484    7.6330 C.2       1 MOL     0.0459
     16 S9         74.9119   48.5730    8.5461 S.3       1 MOL    -0.1054
     17 H161       66.6427   52.6280   14.0179 H         1 MOL     0.1442
     18 H162       66.7074   51.0306   14.7281 H         1 MOL     0.1442
@<TRIPOS>BOND
     1    2    1 ar
     2    1    7 ar
     3    1   12 ar
     4    3    2 ar
     5    2    9 ar
     6   14    3 ar
     7    4    5 1 
     8    4    6 2 
     9    4   14 1 
    10    5   15 2 
    11    6   16 1 
    12    7    8 ar
    13    8   10 ar
    14    8   11 1 
    15    9   10 ar
    16   12   13 ar
    17   13   14 ar
    18   15   16 1 
    19   17   11 1 
    20   18   11 1 
@<TRIPOS>SUBSTRUCTURE
1 MOL         1
@<TRIPOS>MOLECULE
query molecule
   18    20     1     0     0
SMALL
NO_CHARGE

@<TRIPOS>ATOM
      1 C4         68.6917   48.9919    7.2848 C.ar      1 MOL     0.0725
      2 C5         69.2757   47.7564    7.5752 C.ar      1 MOL     0.0009
      3 C6         70.6540   47.6715    7.7744 C.ar      1 MOL     0.0187
      4 C7         72.8479   48.7427    7.8797 C.2       1 MOL    -0.0112
      5 C8         73.7310   48.9752    6.8669 C.2       1 MOL     0.0163
      6 C10        73.4433   48.4980    9.0613 C.2       1 MOL     0.0538
      7 N12        67.3647   49.0982    7.1088 N.ar      1 MOL    -0.2334
      8 C13        66.5543   48.0224    7.2017 C.ar      1 MOL     0.1153
      9 C15        68.4685   46.6228    7.6732 C.ar      1 MOL     0.0138
     10 C14        67.0878   46.7576    7.4823 C.ar      1 MOL     0.0445
     11 N16        65.2441   48.1656    7.0032 N.pl3     1 MOL    -0.3432
     12 C3         69.4915   50.1305    7.1978 C.ar      1 MOL     0.0295
     13 C2         70.8725   50.0443    7.3904 C.ar      1 MOL     0.0108
     14 C1         71.4670   48.8119    7.6658 C.ar      1 MOL    -0.0171
     15 C11        75.0443   48.9136    7.1371 C.2       1 MOL     0.0459
     16 S9         75.1243   48.5627    8.7714 S.3       1 MOL    -0.1054
     17 H161       64.8773   49.0447    6.6673 H         1 MOL     0.1442
     18 H162       64.6180   47.3950    7.1886 H         1 MOL     0.1442
@<TRIPOS>BOND
     1    2    1 ar
     2    1    7 ar
     3    1   12 ar
     4    3    2 ar
     5    2    9 ar
     6   14    3 ar
     7    4    5 1 
     8    4    6 2 
     9    4   14 1 
    10    5   15 2 
    11    6   16 1 
    12    7    8 ar
    13    8   10 ar
    14    8   11 1 
    15    9   10 ar
    16   12   13 ar
    17   13   14 ar
    18   15   16 1 
    19   17   11 1 
    20   18   11 1 
@<TRIPOS>SUBSTRUCTURE
1 MOL         1
@<TRIPOS>MOLECULE
query molecule
   18    20     1     0     0
SMALL
NO_CHARGE

@<TRIPOS>ATOM
      1 C4         68.7272   48.9529    7.2845 C.ar      1 MOL     0.0725
      2 C5         69.2886   47.7154    7.6091 C.ar      1 MOL     0.0009
      3 C6         70.6587   47.6192    7.8539 C.ar      1 MOL     0.0187
      4 C7         72.8592   48.6695    8.0166 C.2       1 MOL    -0.0112
      5 C8         73.7768   48.8754    7.0290 C.2       1 MOL     0.0163
      6 C10        73.4138   48.4384    9.2206 C.2       1 MOL     0.0538
      7 N12        67.4078   49.0702    7.0643 N.ar      1 MOL    -0.2334
      8 C13        66.5835   48.0039    7.1444 C.ar      1 MOL     0.1153
      9 C15        68.4668   46.5913    7.6952 C.ar      1 MOL     0.0138
     10 C14        67.0945   46.7376    7.4581 C.ar      1 MOL     0.0445
     11 N16        65.2820   48.1578    6.9019 N.pl3     1 MOL    -0.3432
     12 C3         69.5413   50.0822    7.2091 C.ar      1 MOL     0.0295
     13 C2         70.9144   49.9845    7.4474 C.ar      1 MOL     0.0108
     14 C1         71.4867   48.7499    7.7573 C.ar      1 MOL    -0.0171
     15 C11        75.0801   48.8043    7.3423 C.2       1 MOL     0.0459
     16 S9         75.1037   48.4802    8.9840 S.3       1 MOL    -0.1054
     17 H161       64.9494   48.2193    5.9502 H         1 MOL     0.1442
     18 H162       64.6282   48.2128    7.6697 H         1 MOL     0.1442
@<TRIPOS>BOND
     1    2    1 ar
     2    1    7 ar
     3    1   12 ar
     4    3    2 ar
     5    2    9 ar
     6   14    3 ar
     7    4    5 1 
     8    4    6 2 
     9    4   14 1 
    10    5   15 2 
    11    6   16 1 
    12    7    8 ar
    13    8   10 ar
    14    8   11 1 
    15    9   10 ar
    16   12   13 ar
    17   13   14 ar
    18   15   16 1 
    19   17   11 1 
    20   18   11 1 
@<TRIPOS>SUBSTRUCTURE
1 MOL         1
@<TRIPOS>MOLECULE
query molecule
   18    20     1     0     0
SMALL
NO_CHARGE

@<TRIPOS>ATOM
      1 C4         68.7240   48.9548    7.2851 C.ar      1 MOL     0.0725
      2 C5         69.2865   47.7163    7.6042 C.ar      1 MOL     0.0009
      3 C6         70.6583   47.6184    7.8388 C.ar      1 MOL     0.0187
      4 C7         72.8610   48.6662    7.9866 C.2       1 MOL    -0.0112
      5 C8         73.7716   48.8727    6.9927 C.2       1 MOL     0.0163
      6 C10        73.4241   48.4327    9.1862 C.2       1 MOL     0.0538
      7 N12        67.4031   49.0738    7.0747 N.ar      1 MOL    -0.2334
      8 C13        66.5784   48.0083    7.1596 C.ar      1 MOL     0.1153
      9 C15        68.4641   46.5930    7.6950 C.ar      1 MOL     0.0138
     10 C14        67.0903   46.7410    7.4681 C.ar      1 MOL     0.0445
     11 N16        65.2753   48.1637    6.9267 N.pl3     1 MOL    -0.3432
     12 C3         69.5388   50.0833    7.2050 C.ar      1 MOL     0.0295
     13 C2         70.9135   49.9839    7.4332 C.ar      1 MOL     0.0108
     14 C1         71.4867   48.7483    7.7375 C.ar      1 MOL    -0.0171
     15 C11        75.0770   48.7999    7.2964 C.2       1 MOL     0.0459
     16 S9         75.1123   48.4732    8.9373 S.3       1 MOL    -0.1054
     17 H161       64.6068   47.5460    7.3646 H         1 MOL     0.1442
     18 H162       64.9562   48.8993    6.3126 H         1 MOL     0.1442
@<TRIPOS>BOND
     1    2    1 ar
     2    1    7 ar
     3    1   12 ar
     4    3    2 ar
     5    2    9 ar
     6   14    3 ar
     7    4    5 1 
     8    4    6 2 
     9    4   14 1 
    10    5   15 2 
    11    6   16 1 
    12    7    8 ar
    13    8   10 ar
    14    8   11 1 
    15    9   10 ar
    16   12   13 ar
    17   13   14 ar
    18   15   16 1 
    19   17   11 1 
    20   18   11 1 
@<TRIPOS>SUBSTRUCTURE
1 MOL         1
@<TRIPOS>MOLECULE
query molecule
   18    20     1     0     0
SMALL
NO_CHARGE

@<TRIPOS>ATOM
      1 C4         64.3726   47.6278    8.5434 C.ar      1 MOL     0.0725
      2 C5         64.9014   48.1734    9.7159 C.ar      1 MOL     0.0009
      3 C6         64.2945   47.9000   10.9421 C.ar      1 MOL     0.0187
      4 C7         62.5355   46.8031   12.2359 C.2       1 MOL    -0.0112
      5 C8         63.2542   46.7899   13.3948 C.2       1 MOL     0.0163
      6 C10        61.2253   46.5563   12.4177 C.2       1 MOL     0.0538
      7 N12        64.9531   47.8630    7.3556 N.ar      1 MOL    -0.2334
      8 C13        66.0577   48.6324    7.2525 C.ar      1 MOL     0.1153
      9 C15        66.0391   48.9776    9.6453 C.ar      1 MOL     0.0138
     10 C14        66.6250   49.2116    8.3952 C.ar      1 MOL     0.0445
     11 N16        66.5946   48.8566    6.0533 N.pl3     1 MOL    -0.3432
     12 C3         63.2431   46.8132    8.6089 C.ar      1 MOL     0.0295
     13 C2         62.6314   46.5452    9.8360 C.ar      1 MOL     0.0108
     14 C1         63.1433   47.0980   11.0108 C.ar      1 MOL    -0.0171
     15 C11        62.6124   46.5192   14.5422 C.2       1 MOL     0.0459
     16 S9         61.0159   46.2974   14.0919 S.3       1 MOL    -0.1054
     17 H161       67.0399   48.1024    5.5502 H         1 MOL     0.1442
     18 H162       66.5562   49.7808    5.6476 H         1 MOL     0.1442
@<TRIPOS>BOND
     1    2    1 ar
     2    1    7 ar
     3    1   12 ar
     4    3    2 ar
     5    2    9 ar
     6   14    3 ar
     7    4    5 1 
     8    4    6 2 
     9    4   14 1 
    10    5   15 2 
    11    6   16 1 
    12    7    8 ar
    13    8   10 ar
    14    8   11 1 
    15    9   10 ar
    16   12   13 ar
    17   13   14 ar
    18   15   16 1 
    19   17   11 1 
    20   18   11 1 
@<TRIPOS>SUBSTRUCTURE
1 MOL         1
@<TRIPOS>MOLECULE
query molecule
   18    20     1     0     0
SMALL
NO_CHARGE

@<TRIPOS>ATOM
      1 C4         64.4873   47.7572    8.3146 C.ar      1 MOL     0.0725
      2 C5         64.9179   48.2235    9.5592 C.ar      1 MOL     0.0009
      3 C6         64.2332   47.8465   10.7148 C.ar      1 MOL     0.0187
      4 C7         62.4155   46.6205   11.7939 C.2       1 MOL    -0.0112
      5 C8         63.0207   45.8516   12.7437 C.2       1 MOL     0.0163
      6 C10        61.1558   46.9694   12.1129 C.2       1 MOL     0.0538
      7 N12        65.1440   48.0927    7.1924 N.ar      1 MOL    -0.2334
      8 C13        66.2333   48.8895    7.2262 C.ar      1 MOL     0.1153
      9 C15        66.0371   49.0534    9.6304 C.ar      1 MOL     0.0138
     10 C14        66.7037   49.3924    8.4465 C.ar      1 MOL     0.0445
     11 N16        66.8477   49.2141    6.0888 N.pl3     1 MOL    -0.3432
     12 C3         63.3769   46.9176    8.2381 C.ar      1 MOL     0.0295
     13 C2         62.6871   46.5457    9.3947 C.ar      1 MOL     0.0108
     14 C1         63.1007   47.0188   10.6409 C.ar      1 MOL    -0.0171
     15 C11        62.3190   45.5170   13.8379 C.2       1 MOL     0.0459
     16 S9         60.8296   46.2501   13.6261 S.3       1 MOL    -0.1054
     17 H161       67.4850   48.5615    5.6551 H         1 MOL     0.1442
     18 H162       66.6759   50.1125    5.6605 H         1 MOL     0.1442
@<TRIPOS>BOND
     1    2    1 ar
     2    1    7 ar
     3    1   12 ar
     4    3    2 ar
     5    2    9 ar
     6   14    3 ar
     7    4    5 1 
     8    4    6 2 
     9    4   14 1 
    10    5   15 2 
    11    6   16 1 
    12    7    8 ar
    13    8   10 ar
    14    8   11 1 
    15    9   10 ar
    16   12   13 ar
    17   13   14 ar
    18   15   16 1 
    19   17   11 1 
    20   18   11 1 
@<TRIPOS>SUBSTRUCTURE
1 MOL         1
@<TRIPOS>MOLECULE
query molecule
   18    20     1     0     0
SMALL
NO_CHARGE

@<TRIPOS>ATOM
      1 C4         64.6397   47.9100    8.7018 C.ar      1 MOL     0.0725
      2 C5         65.2265   48.6915    9.7003 C.ar      1 MOL     0.0009
      3 C6         64.7177   48.6527   10.9988 C.ar      1 MOL     0.0187
      4 C7         63.0979   47.7916   12.6132 C.2       1 MOL    -0.0112
      5 C8         63.1464   46.6367   13.3368 C.2       1 MOL     0.0163
      6 C10        62.5691   48.8254   13.2929 C.2       1 MOL     0.0538
      7 N12        65.1264   47.9183    7.4503 N.ar      1 MOL    -0.2334
      8 C13        66.1896   48.6793    7.1140 C.ar      1 MOL     0.1153
      9 C15        66.3236   49.4940    9.3864 C.ar      1 MOL     0.0138
     10 C14        66.8114   49.4888    8.0739 C.ar      1 MOL     0.0445
     11 N16        66.6325   48.6736    5.8569 N.pl3     1 MOL    -0.3432
     12 C3         63.5508   47.0965    9.0121 C.ar      1 MOL     0.0295
     13 C2         63.0370   47.0630   10.3108 C.ar      1 MOL     0.0108
     14 C1         63.6069   47.8517   11.3114 C.ar      1 MOL    -0.0171
     15 C11        62.6599   46.6452   14.5878 C.2       1 MOL     0.0459
     16 S9         62.1441   48.2186   14.8307 S.3       1 MOL    -0.1054
     17 H161       67.2199   47.9189    5.5318 H         1 MOL     0.1442
     18 H162       66.3808   49.4238    5.2293 H         1 MOL     0.1442
@<TRIPOS>BOND
     1    2    1 ar
     2    1    7 ar
     3    1   12 ar
     4    3    2 ar
     5    2    9 ar
     6   14    3 ar
     7    4    5 1 
     8    4    6 2 
     9    4   14 1 
    10    5   15 2 
    11    6   16 1 
    12    7    8 ar
    13    8   10 ar
    14    8   11 1 
    15    9   10 ar
    16   12   13 ar
    17   13   14 ar
    18   15   16 1 
    19   17   11 1 
    20   18   11 1 
@<TRIPOS>SUBSTRUCTURE
1 MOL         1
@<TRIPOS>MOLECULE
query molecule
   18    20     1     0     0
SMALL
NO_CHARGE

@<TRIPOS>ATOM
      1 C4         76.2120   43.6429    7.6950 C.ar      1 MOL     0.0725
      2 C5         76.9653   44.4145    6.8068 C.ar      1 MOL     0.0009
      3 C6         76.3300   45.0852    5.7612 C.ar      1 MOL     0.0187
      4 C7         74.2909   45.6581    4.5426 C.2       1 MOL    -0.0112
      5 C8         73.6951   44.9824    3.5188 C.2       1 MOL     0.0163
      6 C10        74.1396   46.9926    4.4606 C.2       1 MOL     0.0538
      7 N12        76.8017   43.0054    8.7192 N.ar      1 MOL    -0.2334
      8 C13        78.1340   43.0837    8.9232 C.ar      1 MOL     0.1153
      9 C15        78.3455   44.5131    6.9848 C.ar      1 MOL     0.0138
     10 C14        78.9386   43.8367    8.0579 C.ar      1 MOL     0.0445
     11 N16        78.6846   42.4223    9.9411 N.pl3     1 MOL    -0.3432
     12 C3         74.8307   43.5505    7.5297 C.ar      1 MOL     0.0295
     13 C2         74.1956   44.2164    6.4785 C.ar      1 MOL     0.0108
     14 C1         74.9416   44.9773    5.5772 C.ar      1 MOL    -0.0171
     15 C11        73.0690   45.6893    2.5649 C.2       1 MOL     0.0459
     16 S9         73.2473   47.2855    3.0351 S.3       1 MOL    -0.1054
     17 H161       78.6365   41.4139    9.9731 H         1 MOL     0.1442
     18 H162       79.1499   42.9294   10.6802 H         1 MOL     0.1442
@<TRIPOS>BOND
     1    2    1 ar
     2    1    7 ar
     3    1   12 ar
     4    3    2 ar
     5    2    9 ar
     6   14    3 ar
     7    4    5 1 
     8    4    6 2 
     9    4   14 1 
    10    5   15 2 
    11    6   16 1 
    12    7    8 ar
    13    8   10 ar
    14    8   11 1 
    15    9   10 ar
    16   12   13 ar
    17   13   14 ar
    18   15   16 1 
    19   17   11 1 
    20   18   11 1 
@<TRIPOS>SUBSTRUCTURE
1 MOL         1
@<TRIPOS>MOLECULE
query molecule
   18    20     1     0     0
SMALL
NO_CHARGE

@<TRIPOS>ATOM
      1 C4         76.4153   43.5491    8.8510 C.ar      1 MOL     0.0725
      2 C5         77.2092   44.3482    8.0244 C.ar      1 MOL     0.0009
      3 C6         76.6480   44.9526    6.8991 C.ar      1 MOL     0.0187
      4 C7         74.7181   45.3645    5.4578 C.2       1 MOL    -0.0112
      5 C8         74.3215   44.6333    4.3771 C.2       1 MOL     0.0163
      6 C10        74.4523   46.6782    5.3398 C.2       1 MOL     0.0538
      7 N12        76.9315   42.9743    9.9493 N.ar      1 MOL    -0.2334
      8 C13        78.2271   43.1437   10.2892 C.ar      1 MOL     0.1153
      9 C15        78.5538   44.5404    8.3429 C.ar      1 MOL     0.0138
     10 C14        79.0705   43.9280    9.4913 C.ar      1 MOL     0.0445
     11 N16        78.7066   42.5423   11.3778 N.pl3     1 MOL    -0.3432
     12 C3         75.0679   43.3634    8.5448 C.ar      1 MOL     0.0295
     13 C2         74.5077   43.9631    7.4141 C.ar      1 MOL     0.0108
     14 C1         75.2965   44.7506    6.5740 C.ar      1 MOL    -0.0171
     15 C11        73.7550   45.2756    3.3436 C.2       1 MOL     0.0459
     16 S9         73.7210   46.8822    3.8110 S.3       1 MOL    -0.1054
     17 H161       79.6623   42.7013   11.6631 H         1 MOL     0.1442
     18 H162       78.1142   41.9275   11.9174 H         1 MOL     0.1442
@<TRIPOS>BOND
     1    2    1 ar
     2    1    7 ar
     3    1   12 ar
     4    3    2 ar
     5    2    9 ar
     6   14    3 ar
     7    4    5 1 
     8    4    6 2 
     9    4   14 1 
    10    5   15 2 
    11    6   16 1 
    12    7    8 ar
    13    8   10 ar
    14    8   11 1 
    15    9   10 ar
    16   12   13 ar
    17   13   14 ar
    18   15   16 1 
    19   17   11 1 
    20   18   11 1 
@<TRIPOS>SUBSTRUCTURE
1 MOL         1
@<TRIPOS>MOLECULE
query molecule
   18    20     1     0     0
SMALL
NO_CHARGE

@<TRIPOS>ATOM
      1 C4         76.6559   43.5492    9.1239 C.ar      1 MOL     0.0725
      2 C5         77.3951   44.4225    8.3221 C.ar      1 MOL     0.0009
      3 C6         76.7666   45.1070    7.2814 C.ar      1 MOL     0.0187
      4 C7         74.7558   45.6057    5.9854 C.2       1 MOL    -0.0112
      5 C8         74.4871   46.9384    6.0923 C.2       1 MOL     0.0163
      6 C10        74.3838   45.0793    4.8043 C.2       1 MOL     0.0538
      7 N12        77.2377   42.8958   10.1426 N.ar      1 MOL    -0.2334
      8 C13        78.5485   43.0554   10.4237 C.ar      1 MOL     0.1153
      9 C15        78.7534   44.6072    8.5811 C.ar      1 MOL     0.0138
     10 C14        79.3389   43.9124    9.6466 C.ar      1 MOL     0.0445
     11 N16        79.0934   42.3758   11.4326 N.pl3     1 MOL    -0.3432
     12 C3         75.2954   43.3699    8.8779 C.ar      1 MOL     0.0295
     13 C2         74.6676   44.0500    7.8314 C.ar      1 MOL     0.0108
     14 C1         75.4010   44.9128    7.0155 C.ar      1 MOL    -0.0171
     15 C11        73.8834   47.5534    5.0632 C.2       1 MOL     0.0459
     16 S9         73.6820   46.3548    3.9129 S.3       1 MOL    -0.1054
     17 H161       80.0619   42.5248   11.6772 H         1 MOL     0.1442
     18 H162       78.5377   41.7118   11.9527 H         1 MOL     0.1442
@<TRIPOS>BOND
     1    2    1 ar
     2    1    7 ar
     3    1   12 ar
     4    3    2 ar
     5    2    9 ar
     6   14    3 ar
     7    4    5 1 
     8    4    6 2 
     9    4   14 1 
    10    5   15 2 
    11    6   16 1 
    12    7    8 ar
    13    8   10 ar
    14    8   11 1 
    15    9   10 ar
    16   12   13 ar
    17   13   14 ar
    18   15   16 1 
    19   17   11 1 
    20   18   11 1 
@<TRIPOS>SUBSTRUCTURE
1 MOL         1
@<TRIPOS>MOLECULE
query molecule
   18    20     1     0     0
SMALL
NO_CHARGE

@<TRIPOS>ATOM
      1 C4         71.9649   43.4694    5.1047 C.ar      1 MOL     0.0725
      2 C5         72.5076   43.7583    6.3593 C.ar      1 MOL     0.0009
      3 C6         73.2313   44.9364    6.5463 C.ar      1 MOL     0.0187
      4 C7         74.1492   47.0205    5.6601 C.2       1 MOL    -0.0112
      5 C8         74.4203   47.8447    4.6080 C.2       1 MOL     0.0163
      6 C10        74.5867   47.4988    6.8392 C.2       1 MOL     0.0538
      7 N12        71.2488   42.3504    4.9090 N.ar      1 MOL    -0.2334
      8 C13        71.0328   41.4695    5.9090 C.ar      1 MOL     0.1153
      9 C15        72.3083   42.8672    7.4140 C.ar      1 MOL     0.0138
     10 C14        71.5611   41.7052    7.1851 C.ar      1 MOL     0.0445
     11 N16        70.3314   40.3614    5.6707 N.pl3     1 MOL    -0.3432
     12 C3         72.1501   44.3621    4.0499 C.ar      1 MOL     0.0295
     13 C2         72.8807   45.5384    4.2355 C.ar      1 MOL     0.0108
     14 C1         73.4396   45.8281    5.4811 C.ar      1 MOL    -0.0171
     15 C11        75.0879   48.9849    4.8445 C.2       1 MOL     0.0459
     16 S9         75.3486   48.9876    6.4975 S.3       1 MOL    -0.1054
     17 H161       70.0249   39.7826    6.4396 H         1 MOL     0.1442
     18 H162       70.1063   40.1006    4.7213 H         1 MOL     0.1442
@<TRIPOS>BOND
     1    2    1 ar
     2    1    7 ar
     3    1   12 ar
     4    3    2 ar
     5    2    9 ar
     6   14    3 ar
     7    4    5 1 
     8    4    6 2 
     9    4   14 1 
    10    5   15 2 
    11    6   16 1 
    12    7    8 ar
    13    8   10 ar
    14    8   11 1 
    15    9   10 ar
    16   12   13 ar
    17   13   14 ar
    18   15   16 1 
    19   17   11 1 
    20   18   11 1 
@<TRIPOS>SUBSTRUCTURE
1 MOL         1
@<TRIPOS>MOLECULE
query molecule
   18    20     1     0     0
SMALL
NO_CHARGE

@<TRIPOS>ATOM
      1 C4         71.6004   43.7859    5.9990 C.ar      1 MOL     0.0725
      2 C5         71.2164   44.3982    7.1946 C.ar      1 MOL     0.0009
      3 C6         71.7347   45.6495    7.5295 C.ar      1 MOL     0.0187
      4 C7         73.1702   47.5561    7.0044 C.2       1 MOL    -0.0112
      5 C8         74.1500   47.7038    7.9414 C.2       1 MOL     0.0163
      6 C10        72.8129   48.7137    6.4189 C.2       1 MOL     0.0538
      7 N12        71.0983   42.5906    5.6492 N.ar      1 MOL    -0.2334
      8 C13        70.2142   41.9413    6.4362 C.ar      1 MOL     0.1153
      9 C15        70.3085   43.7528    8.0346 C.ar      1 MOL     0.0138
     10 C14        69.8011   42.5056    7.6503 C.ar      1 MOL     0.0445
     11 N16        69.7517   40.7483    6.0625 N.pl3     1 MOL    -0.3432
     12 C3         72.4979   44.4314    5.1496 C.ar      1 MOL     0.0295
     13 C2         73.0221   45.6813    5.4883 C.ar      1 MOL     0.0108
     14 C1         72.6562   46.2940    6.6877 C.ar      1 MOL    -0.0171
     15 C11        74.6173   48.9376    8.1888 C.2       1 MOL     0.0459
     16 S9         73.7634   49.9304    7.1468 S.3       1 MOL    -0.1054
     17 H161       68.9738   40.3317    6.5538 H         1 MOL     0.1442
     18 H162       70.1791   40.2610    5.2879 H         1 MOL     0.1442
@<TRIPOS>BOND
     1    2    1 ar
     2    1    7 ar
     3    1   12 ar
     4    3    2 ar
     5    2    9 ar
     6   14    3 ar
     7    4    5 1 
     8    4    6 2 
     9    4   14 1 
    10    5   15 2 
    11    6   16 1 
    12    7    8 ar
    13    8   10 ar
    14    8   11 1 
    15    9   10 ar
    16   12   13 ar
    17   13   14 ar
    18   15   16 1 
    19   17   11 1 
    20   18   11 1 
@<TRIPOS>SUBSTRUCTURE
1 MOL         1
@<TRIPOS>MOLECULE
query molecule
   18    20     1     0     0
SMALL
NO_CHARGE

@<TRIPOS>ATOM
      1 C4         71.8315   43.3018    5.6027 C.ar      1 MOL     0.0725
      2 C5         71.9767   43.7104    6.9308 C.ar      1 MOL     0.0009
      3 C6         72.6310   44.9084    7.2193 C.ar      1 MOL     0.0187
      4 C7         73.8093   46.9121    6.4653 C.2       1 MOL    -0.0112
      5 C8         74.2752   47.7076    5.4605 C.2       1 MOL     0.0163
      6 C10        73.9950   47.4363    7.6906 C.2       1 MOL     0.0538
      7 N12        71.1881   42.1620    5.3029 N.ar      1 MOL    -0.2334
      8 C13        70.6658   41.3743    6.2671 C.ar      1 MOL     0.1153
      9 C15        71.4538   42.9178    7.9529 C.ar      1 MOL     0.0138
     10 C14        70.7899   41.7318    7.6161 C.ar      1 MOL     0.0445
     11 N16        70.0493   40.2416    5.9302 N.pl3     1 MOL    -0.3432
     12 C3         72.3410   44.0958    4.5762 C.ar      1 MOL     0.0295
     13 C2         73.0024   45.2919    4.8655 C.ar      1 MOL     0.0108
     14 C1         73.1656   45.7007    6.1900 C.ar      1 MOL    -0.0171
     15 C11        74.8668   48.8678    5.7856 C.2       1 MOL     0.0459
     16 S9         74.7904   48.9283    7.4562 S.3       1 MOL    -0.1054
     17 H161       69.5157   39.7325    6.6203 H         1 MOL     0.1442
     18 H162       70.1158   39.8923    4.9849 H         1 MOL     0.1442
@<TRIPOS>BOND
     1    2    1 ar
     2    1    7 ar
     3    1   12 ar
     4    3    2 ar
     5    2    9 ar
     6   14    3 ar
     7    4    5 1 
     8    4    6 2 
     9    4   14 1 
    10    5   15 2 
    11    6   16 1 
    12    7    8 ar
    13    8   10 ar
    14    8   11 1 
    15    9   10 ar
    16   12   13 ar
    17   13   14 ar
    18   15   16 1 
    19   17   11 1 
    20   18   11 1 
@<TRIPOS>SUBSTRUCTURE
1 MOL         1
@<TRIPOS>MOLECULE
query molecule
   18    20     1     0     0
SMALL
NO_CHARGE

@<TRIPOS>ATOM
      1 C4         73.1761   43.4420    7.8521 C.ar      1 MOL     0.0725
      2 C5         73.4192   43.4076    6.4767 C.ar      1 MOL     0.0009
      3 C6         74.7315   43.4429    6.0043 C.ar      1 MOL     0.0187
      4 C7         77.1344   43.5532    6.4347 C.2       1 MOL    -0.0112
      5 C8         77.8330   42.3971    6.2472 C.2       1 MOL     0.0163
      6 C10        77.8254   44.6558    6.0921 C.2       1 MOL     0.0538
      7 N12        71.9214   43.3895    8.3277 N.ar      1 MOL    -0.2334
      8 C13        70.8581   43.3061    7.4999 C.ar      1 MOL     0.1153
      9 C15        72.3433   43.3270    5.5923 C.ar      1 MOL     0.0138
     10 C14        71.0438   43.2769    6.1115 C.ar      1 MOL     0.0445
     11 N16        69.6271   43.2735    8.0100 N.pl3     1 MOL    -0.3432
     12 C3         74.2476   43.5100    8.7414 C.ar      1 MOL     0.0295
     13 C2         75.5614   43.5523    8.2680 C.ar      1 MOL     0.0108
     14 C1         75.8135   43.5339    6.8954 C.ar      1 MOL    -0.0171
     15 C11        79.0904   42.4778    5.7845 C.2       1 MOL     0.0459
     16 S9         79.3574   44.1156    5.5678 S.3       1 MOL    -0.1054
     17 H161       69.3671   43.9176    8.7433 H         1 MOL     0.1442
     18 H162       68.9543   42.6049    7.6633 H         1 MOL     0.1442
@<TRIPOS>BOND
     1    2    1 ar
     2    1    7 ar
     3    1   12 ar
     4    3    2 ar
     5    2    9 ar
     6   14    3 ar
     7    4    5 1 
     8    4    6 2 
     9    4   14 1 
    10    5   15 2 
    11    6   16 1 
    12    7    8 ar
    13    8   10 ar
    14    8   11 1 
    15    9   10 ar
    16   12   13 ar
    17   13   14 ar
    18   15   16 1 
    19   17   11 1 
    20   18   11 1 
@<TRIPOS>SUBSTRUCTURE
1 MOL         1
@<TRIPOS>MOLECULE
query molecule
   18    20     1     0     0
SMALL
NO_CHARGE

@<TRIPOS>ATOM
      1 C4         73.1437   43.5479    7.8021 C.ar      1 MOL     0.0725
      2 C5         73.4274   43.4140    6.4406 C.ar      1 MOL     0.0009
      3 C6         74.7522   43.4350    6.0038 C.ar      1 MOL     0.0187
      4 C7         77.1398   43.6168    6.4918 C.2       1 MOL    -0.0112
      5 C8         77.7514   42.4729    6.0710 C.2       1 MOL     0.0163
      6 C10        77.9266   44.7050    6.4067 C.2       1 MOL     0.0538
      7 N12        71.8766   43.5109    8.2449 N.ar      1 MOL    -0.2334
      8 C13        70.8392   43.3480    7.3964 C.ar      1 MOL     0.1153
      9 C15        72.3790   43.2494    5.5350 C.ar      1 MOL     0.0138
     10 C14        71.0657   43.2173    6.0199 C.ar      1 MOL     0.0445
     11 N16        69.5944   43.3338    7.8728 N.pl3     1 MOL    -0.3432
     12 C3         74.1878   43.7003    8.7133 C.ar      1 MOL     0.0295
     13 C2         75.5141   43.7283    8.2751 C.ar      1 MOL     0.0108
     14 C1         75.8064   43.6106    6.9155 C.ar      1 MOL    -0.0171
     15 C11        79.0265   42.5445    5.6577 C.2       1 MOL     0.0459
     16 S9         79.4285   44.1624    5.8038 S.3       1 MOL    -0.1054
     17 H161       69.3040   44.0270    8.5475 H         1 MOL     0.1442
     18 H162       68.9416   42.6300    7.5590 H         1 MOL     0.1442
@<TRIPOS>BOND
     1    2    1 ar
     2    1    7 ar
     3    1   12 ar
     4    3    2 ar
     5    2    9 ar
     6   14    3 ar
     7    4    5 1 
     8    4    6 2 
     9    4   14 1 
    10    5   15 2 
    11    6   16 1 
    12    7    8 ar
    13    8   10 ar
    14    8   11 1 
    15    9   10 ar
    16   12   13 ar
    17   13   14 ar
    18   15   16 1 
    19   17   11 1 
    20   18   11 1 
@<TRIPOS>SUBSTRUCTURE
1 MOL         1
@<TRIPOS>MOLECULE
query molecule
   18    20     1     0     0
SMALL
NO_CHARGE

@<TRIPOS>ATOM
      1 C4         73.1453   43.5513    7.8022 C.ar      1 MOL     0.0725
      2 C5         73.4270   43.4278    6.4394 C.ar      1 MOL     0.0009
      3 C6         74.7503   43.4692    5.9992 C.ar      1 MOL     0.0187
      4 C7         77.1364   43.6816    6.4817 C.2       1 MOL    -0.0112
      5 C8         77.6367   42.7059    5.6708 C.2       1 MOL     0.0163
      6 C10        78.0277   44.6490    6.7650 C.2       1 MOL     0.0538
      7 N12        71.8800   43.4947    8.2483 N.ar      1 MOL    -0.2334
      8 C13        70.8426   43.3215    7.4017 C.ar      1 MOL     0.1153
      9 C15        72.3786   43.2531    5.5358 C.ar      1 MOL     0.0138
     10 C14        71.0672   43.2006    6.0240 C.ar      1 MOL     0.0445
     11 N16        69.5995   43.2879    7.8813 N.pl3     1 MOL    -0.3432
     12 C3         74.1897   43.7137    8.7114 C.ar      1 MOL     0.0295
     13 C2         75.5142   43.7621    8.2698 C.ar      1 MOL     0.0108
     14 C1         75.8044   43.6549    6.9088 C.ar      1 MOL    -0.0171
     15 C11        78.9170   42.7954    5.2777 C.2       1 MOL     0.0459
     16 S9         79.4752   44.2115    5.9731 S.3       1 MOL    -0.1054
     17 H161       69.2954   43.9855    8.5454 H         1 MOL     0.1442
     18 H162       68.9616   42.5649    7.5807 H         1 MOL     0.1442
@<TRIPOS>BOND
     1    2    1 ar
     2    1    7 ar
     3    1   12 ar
     4    3    2 ar
     5    2    9 ar
     6   14    3 ar
     7    4    5 1 
     8    4    6 2 
     9    4   14 1 
    10    5   15 2 
    11    6   16 1 
    12    7    8 ar
    13    8   10 ar
    14    8   11 1 
    15    9   10 ar
    16   12   13 ar
    17   13   14 ar
    18   15   16 1 
    19   17   11 1 
    20   18   11 1 
@<TRIPOS>SUBSTRUCTURE
1 MOL         1
@<TRIPOS>MOLECULE
query molecule
   18    20     1     0     0
SMALL
NO_CHARGE

@<TRIPOS>ATOM
      1 C4         72.2914   44.8783    9.0504 C.ar      1 MOL     0.0725
      2 C5         73.0590   45.9977    8.7193 C.ar      1 MOL     0.0009
      3 C6         72.4389   47.2349    8.5424 C.ar      1 MOL     0.0187
      4 C7         70.4149   48.6039    8.5140 C.2       1 MOL    -0.0112
      5 C8         70.1961   49.4258    9.5799 C.2       1 MOL     0.0163
      6 C10        70.0102   49.1293    7.3432 C.2       1 MOL     0.0538
      7 N12        72.8713   43.6827    9.2440 N.ar      1 MOL    -0.2334
      8 C13        74.2061   43.5203    9.1228 C.ar      1 MOL     0.1153
      9 C15        74.4408   45.8648    8.5807 C.ar      1 MOL     0.0138
     10 C14        75.0226   44.6074    8.7841 C.ar      1 MOL     0.0445
     11 N16        74.7423   42.3138    9.3058 N.pl3     1 MOL    -0.3432
     12 C3         70.9116   45.0073    9.2025 C.ar      1 MOL     0.0295
     13 C2         70.2899   46.2448    9.0185 C.ar      1 MOL     0.0108
     14 C1         71.0463   47.3656    8.6726 C.ar      1 MOL    -0.0171
     15 C11        69.6033   50.6103    9.3629 C.2       1 MOL     0.0459
     16 S9         69.3451   50.6579    7.7102 S.3       1 MOL    -0.1054
     17 H161       74.1450   41.5048    9.4002 H         1 MOL     0.1442
     18 H162       75.7457   42.2085    9.3502 H         1 MOL     0.1442
@<TRIPOS>BOND
     1    2    1 ar
     2    1    7 ar
     3    1   12 ar
     4    3    2 ar
     5    2    9 ar
     6   14    3 ar
     7    4    5 1 
     8    4    6 2 
     9    4   14 1 
    10    5   15 2 
    11    6   16 1 
    12    7    8 ar
    13    8   10 ar
    14    8   11 1 
    15    9   10 ar
    16   12   13 ar
    17   13   14 ar
    18   15   16 1 
    19   17   11 1 
    20   18   11 1 
@<TRIPOS>SUBSTRUCTURE
1 MOL         1
@<TRIPOS>MOLECULE
query molecule
   18    20     1     0     0
SMALL
NO_CHARGE

@<TRIPOS>ATOM
      1 C4         72.1764   44.4627    9.1209 C.ar      1 MOL     0.0725
      2 C5         72.7318   45.6984    8.7801 C.ar      1 MOL     0.0009
      3 C6         71.8962   46.7821    8.5083 C.ar      1 MOL     0.0187
      4 C7         69.6512   47.7240    8.2984 C.2       1 MOL    -0.0112
      5 C8         69.1780   47.9699    7.0433 C.2       1 MOL     0.0163
      6 C10        69.1842   48.5833    9.2226 C.2       1 MOL     0.0538
      7 N12        72.9635   43.4125    9.4050 N.ar      1 MOL    -0.2334
      8 C13        74.3094   43.5116    9.3679 C.ar      1 MOL     0.1153
      9 C15        74.1192   45.8351    8.7269 C.ar      1 MOL     0.0138
     10 C14        74.9196   44.7251    9.0238 C.ar      1 MOL     0.0445
     11 N16        75.0565   42.4417    9.6395 N.pl3     1 MOL    -0.3432
     12 C3         70.7908   44.3231    9.1878 C.ar      1 MOL     0.0295
     13 C2         69.9540   45.4065    8.9089 C.ar      1 MOL     0.0108
     14 C1         70.4993   46.6408    8.5526 C.ar      1 MOL    -0.0171
     15 C11        68.3519   49.0127    6.8643 C.2       1 MOL     0.0459
     16 S9         68.1724   49.6771    8.3897 S.3       1 MOL    -0.1054
     17 H161       75.4111   41.8691    8.8868 H         1 MOL     0.1442
     18 H162       75.2681   42.2036   10.5979 H         1 MOL     0.1442
@<TRIPOS>BOND
     1    2    1 ar
     2    1    7 ar
     3    1   12 ar
     4    3    2 ar
     5    2    9 ar
     6   14    3 ar
     7    4    5 1 
     8    4    6 2 
     9    4   14 1 
    10    5   15 2 
    11    6   16 1 
    12    7    8 ar
    13    8   10 ar
    14    8   11 1 
    15    9   10 ar
    16   12   13 ar
    17   13   14 ar
    18   15   16 1 
    19   17   11 1 
    20   18   11 1 
@<TRIPOS>SUBSTRUCTURE
1 MOL         1
@<TRIPOS>MOLECULE
query molecule
   18    20     1     0     0
SMALL
NO_CHARGE

@<TRIPOS>ATOM
      1 C4         72.3113   44.6986    9.0768 C.ar      1 MOL     0.0725
      2 C5         73.1007   45.7869    8.6969 C.ar      1 MOL     0.0009
      3 C6         72.5107   47.0362    8.5028 C.ar      1 MOL     0.0187
      4 C7         70.5253   48.4608    8.4889 C.2       1 MOL    -0.0112
      5 C8         69.8244   48.7540    7.3564 C.2       1 MOL     0.0163
      6 C10        70.5250   49.4598    9.3903 C.2       1 MOL     0.0538
      7 N12        72.8627   43.4925    9.2875 N.ar      1 MOL    -0.2334
      8 C13        74.1889   43.2892    9.1371 C.ar      1 MOL     0.1153
      9 C15        74.4743   45.6113    8.5272 C.ar      1 MOL     0.0138
     10 C14        75.0261   44.3436    8.7493 C.ar      1 MOL     0.0445
     11 N16        74.6960   42.0732    9.3387 N.pl3     1 MOL    -0.3432
     12 C3         70.9400   44.8706    9.2601 C.ar      1 MOL     0.0295
     13 C2         70.3482   46.1201    9.0589 C.ar      1 MOL     0.0108
     14 C1         71.1262   47.2096    8.6645 C.ar      1 MOL    -0.0171
     15 C11        69.2536   49.9644    7.2531 C.2       1 MOL     0.0459
     16 S9         69.6277   50.7330    8.6919 S.3       1 MOL    -0.1054
     17 H161       75.6908   41.9559    9.4679 H         1 MOL     0.1442
     18 H162       74.0855   41.2689    9.3621 H         1 MOL     0.1442
@<TRIPOS>BOND
     1    2    1 ar
     2    1    7 ar
     3    1   12 ar
     4    3    2 ar
     5    2    9 ar
     6   14    3 ar
     7    4    5 1 
     8    4    6 2 
     9    4   14 1 
    10    5   15 2 
    11    6   16 1 
    12    7    8 ar
    13    8   10 ar
    14    8   11 1 
    15    9   10 ar
    16   12   13 ar
    17   13   14 ar
    18   15   16 1 
    19   17   11 1 
    20   18   11 1 
@<TRIPOS>SUBSTRUCTURE
1 MOL         1
@<TRIPOS>MOLECULE
query molecule
   18    20     1     0     0
SMALL
NO_CHARGE

@<TRIPOS>ATOM
      1 C4         65.6897   47.9810   20.3699 C.ar      1 MOL     0.0725
      2 C5         64.7753   46.9999   20.7613 C.ar      1 MOL     0.0009
      3 C6         63.4102   47.2876   20.7655 C.ar      1 MOL     0.0187
      4 C7         61.5760   48.8568   20.3846 C.2       1 MOL    -0.0112
      5 C8         60.7783   48.4500   19.3561 C.2       1 MOL     0.0163
      6 C10        60.9062   49.5037   21.3559 C.2       1 MOL     0.0538
      7 N12        67.0062   47.7181   20.3404 N.ar      1 MOL    -0.2334
      8 C13        67.4898   46.5067   20.6889 C.ar      1 MOL     0.1153
      9 C15        65.2408   45.7383   21.1330 C.ar      1 MOL     0.0138
     10 C14        66.6182   45.4886   21.0975 C.ar      1 MOL     0.0445
     11 N16        68.8046   46.2900   20.6631 N.pl3     1 MOL    -0.3432
     12 C3         65.2298   49.2398   19.9855 C.ar      1 MOL     0.0295
     13 C2         63.8633   49.5300   19.9964 C.ar      1 MOL     0.0108
     14 C1         62.9434   48.5612   20.4004 C.ar      1 MOL    -0.0171
     15 C11        59.4701   48.7464   19.4059 C.2       1 MOL     0.0459
     16 S9         59.2758   49.5627   20.8538 S.3       1 MOL    -0.1054
     17 H161       69.2003   45.6662   19.9743 H         1 MOL     0.1442
     18 H162       69.4054   46.7495   21.3324 H         1 MOL     0.1442
@<TRIPOS>BOND
     1    2    1 ar
     2    1    7 ar
     3    1   12 ar
     4    3    2 ar
     5    2    9 ar
     6   14    3 ar
     7    4    5 1 
     8    4    6 2 
     9    4   14 1 
    10    5   15 2 
    11    6   16 1 
    12    7    8 ar
    13    8   10 ar
    14    8   11 1 
    15    9   10 ar
    16   12   13 ar
    17   13   14 ar
    18   15   16 1 
    19   17   11 1 
    20   18   11 1 
@<TRIPOS>SUBSTRUCTURE
1 MOL         1
@<TRIPOS>MOLECULE
query molecule
   18    20     1     0     0
SMALL
NO_CHARGE

@<TRIPOS>ATOM
      1 C4         65.6895   47.9804   20.3748 C.ar      1 MOL     0.0725
      2 C5         64.7809   46.9956   20.7705 C.ar      1 MOL     0.0009
      3 C6         63.4146   47.2778   20.7807 C.ar      1 MOL     0.0187
      4 C7         61.5723   48.8392   20.4074 C.2       1 MOL    -0.0112
      5 C8         60.7195   48.2468   21.2914 C.2       1 MOL     0.0163
      6 C10        60.9687   49.7284   19.5978 C.2       1 MOL     0.0538
      7 N12        67.0069   47.7229   20.3395 N.ar      1 MOL    -0.2334
      8 C13        67.4970   46.5136   20.6863 C.ar      1 MOL     0.1153
      9 C15        65.2532   45.7362   21.1406 C.ar      1 MOL     0.0138
     10 C14        66.6314   45.4921   21.0992 C.ar      1 MOL     0.0445
     11 N16        68.8126   46.3023   20.6548 N.pl3     1 MOL    -0.3432
     12 C3         65.2227   49.2371   19.9919 C.ar      1 MOL     0.0295
     13 C2         63.8550   49.5217   20.0088 C.ar      1 MOL     0.0108
     14 C1         62.9410   48.5493   20.4172 C.ar      1 MOL    -0.0171
     15 C11        59.4199   48.5794   21.2468 C.2       1 MOL     0.0459
     16 S9         59.3161   49.7185   20.0252 S.3       1 MOL    -0.1054
     17 H161       69.1710   45.3655   20.5356 H         1 MOL     0.1442
     18 H162       69.4513   47.0789   20.7501 H         1 MOL     0.1442
@<TRIPOS>BOND
     1    2    1 ar
     2    1    7 ar
     3    1   12 ar
     4    3    2 ar
     5    2    9 ar
     6   14    3 ar
     7    4    5 1 
     8    4    6 2 
     9    4   14 1 
    10    5   15 2 
    11    6   16 1 
    12    7    8 ar
    13    8   10 ar
    14    8   11 1 
    15    9   10 ar
    16   12   13 ar
    17   13   14 ar
    18   15   16 1 
    19   17   11 1 
    20   18   11 1 
@<TRIPOS>SUBSTRUCTURE
1 MOL         1
@<TRIPOS>MOLECULE
query molecule
   18    20     1     0     0
SMALL
NO_CHARGE

@<TRIPOS>ATOM
      1 C4         65.6853   47.9792   20.0716 C.ar      1 MOL     0.0725
      2 C5         64.7447   47.0122   20.4351 C.ar      1 MOL     0.0009
      3 C6         63.3835   47.3104   20.3679 C.ar      1 MOL     0.0187
      4 C7         61.5833   48.8864   19.8709 C.2       1 MOL    -0.0112
      5 C8         60.8332   48.4684   18.8115 C.2       1 MOL     0.0163
      6 C10        60.8725   49.5549   20.7974 C.2       1 MOL     0.0538
      7 N12        66.9994   47.7057   20.1107 N.ar      1 MOL    -0.2334
      8 C13        67.4552   46.4971   20.5035 C.ar      1 MOL     0.1153
      9 C15        65.1809   45.7540   20.8511 C.ar      1 MOL     0.0138
     10 C14        66.5562   45.4931   20.8870 C.ar      1 MOL     0.0445
     11 N16        68.7679   46.2699   20.5455 N.pl3     1 MOL    -0.3432
     12 C3         65.2553   49.2343   19.6432 C.ar      1 MOL     0.0295
     13 C2         63.8924   49.5351   19.5826 C.ar      1 MOL     0.0108
     14 C1         62.9458   48.5807   19.9583 C.ar      1 MOL    -0.0171
     15 C11        59.5267   48.7755   18.7924 C.2       1 MOL     0.0459
     16 S9         59.2690   49.6178   20.2153 S.3       1 MOL    -0.1054
     17 H161       69.2550   45.9676   19.7139 H         1 MOL     0.1442
     18 H162       69.2755   46.3999   21.4089 H         1 MOL     0.1442
@<TRIPOS>BOND
     1    2    1 ar
     2    1    7 ar
     3    1   12 ar
     4    3    2 ar
     5    2    9 ar
     6   14    3 ar
     7    4    5 1 
     8    4    6 2 
     9    4   14 1 
    10    5   15 2 
    11    6   16 1 
    12    7    8 ar
    13    8   10 ar
    14    8   11 1 
    15    9   10 ar
    16   12   13 ar
    17   13   14 ar
    18   15   16 1 
    19   17   11 1 
    20   18   11 1 
@<TRIPOS>SUBSTRUCTURE
1 MOL         1
