#	Name:			3rsx_ligand
#	Creating user name:	suminyi
#	Creation time:		Sun Sep 30 06:48:35 2018
#	Modifying user name:	suminyi
#	Modification time:	Sun Sep 30 06:48:35 2018
@<TRIPOS>MOLECULE
3rsx_ligand
26 28 1 0 0
SMALL
AMBER ff14SB


@<TRIPOS>ATOM
      1 C4         68.7880   50.1600    8.6480 C.ar      1 RSV    0.0725
      2 C5         69.2030   49.0520    9.3910 C.ar      1 RSV    0.0009
      3 C6         69.9150   49.2400   10.5760 C.ar      1 RSV   -0.0449
      4 C7         70.9380   50.7340   12.2170 C.2       1 RSV   -0.0112
      5 C8         70.5800   51.7230   13.0850 C.2       1 RSV   -0.0472
      6 C10        71.9660   49.9850   12.6560 C.2       1 RSV   -0.0169
      7 N12        68.0850   50.0010    7.5150 N.ar      1 RSV   -0.2334
      8 C13        67.7600   48.7740    7.0550 C.ar      1 RSV    0.1153
      9 C15        68.8890   47.7690    8.9420 C.ar      1 RSV   -0.0493
     10 C14        68.1580   47.6280    7.7560 C.ar      1 RSV   -0.0215
     11 N16        67.0760   48.6570    5.9170 N.pl3     1 RSV   -0.3432
     12 C3         69.0880   51.4450    9.0980 C.ar      1 RSV   -0.0351
     13 C2         69.8070   51.6330   10.2810 C.ar      1 RSV   -0.0522
     14 C1         70.2390   50.5320   11.0220 C.ar      1 RSV   -0.0171
     15 C11        71.2760   51.8560   14.2250 C.2       1 RSV   -0.0242
     16 S9         72.4190   50.6350   14.1680 S.3       1 RSV   -0.1054
     17 H6         70.2205   48.3824   11.1570 H         1 RSV    0.0636
     18 H8         69.7558   52.3838   12.8604 H         1 RSV    0.0635
     19 H10        72.4147   49.1414   12.1525 H         1 RSV    0.0707
     20 H15        69.2043   46.8995    9.4996 H         1 RSV    0.0631
     21 H14        67.9036   46.6460    7.3854 H         1 RSV    0.0660
     22 H3         68.7619   52.3021    8.5274 H         1 RSV    0.0646
     23 H2         70.0291   52.6330   10.6230 H         1 RSV    0.0630
     24 H11        71.1307   52.5882   15.0055 H         1 RSV    0.0701
     25 H161       66.7968   49.4837    5.4083 H         1 RSV    0.1442
     26 H162       66.8369   47.7417    5.5633 H         1 RSV    0.1442
@<TRIPOS>BOND
     1    2    1 ar
     2    1    7 ar
     3    1   12 ar
     4    3    2 ar
     5    2    9 ar
     6   14    3 ar
     7    4    5 1
     8    4    6 2
     9    4   14 1
    10    5   15 2
    11    6   16 1
    12    7    8 ar
    13    8   10 ar
    14    8   11 1
    15    9   10 ar
    16   12   13 ar
    17   13   14 ar
    18   15   16 1
    19   17    3 1
    20   18    5 1
    21   19    6 1
    22   20    9 1
    23   21   10 1
    24   22   12 1
    25   23   13 1
    26   24   15 1
    27   25   11 1
    28   26   11 1
@<TRIPOS>SUBSTRUCTURE
     1 RSV     1 RESIDUE           4 A     RSV     0 ROOT
