@<TRIPOS>MOLECULE
query molecule
   18    20     1     0     0
SMALL
NO_CHARGE

@<TRIPOS>ATOM
      1 C4         68.5793   50.2706    8.5539 C.ar      1 MOL     0.0725
      2 C5         68.8058   49.2416    9.4714 C.ar      1 MOL     0.0009
      3 C6         69.4225   49.5241   10.6906 C.ar      1 MOL     0.0187
      4 C7         70.4428   51.1285   12.2255 C.2       1 MOL    -0.0112
      5 C8         71.5720   50.4808   12.6317 C.2       1 MOL     0.0163
      6 C10        70.0322   52.0766   13.0875 C.2       1 MOL     0.0538
      7 N12        67.9698   50.0230    7.3832 N.ar      1 MOL    -0.2334
      8 C13        67.5609   48.7797    7.0520 C.ar      1 MOL     0.1153
      9 C15        68.4009   47.9435    9.1593 C.ar      1 MOL     0.0138
     10 C14        67.7705   47.7090    7.9311 C.ar      1 MOL     0.0445
     11 N16        66.9752   48.5711    5.8730 N.pl3     1 MOL    -0.3432
     12 C3         68.9704   51.5721    8.8652 C.ar      1 MOL     0.0295
     13 C2         69.5942   51.8536   10.0832 C.ar      1 MOL     0.0108
     14 C1         69.8385   50.8297   10.9996 C.ar      1 MOL    -0.0171
     15 C11        72.1176   50.8242   13.8090 C.2       1 MOL     0.0459
     16 S9         71.1346   52.0474   14.3904 S.3       1 MOL    -0.1054
     17 H161       66.8831   47.6315    5.5141 H         1 MOL     0.1442
     18 H162       66.6234   49.3526    5.3386 H         1 MOL     0.1442
@<TRIPOS>BOND
     1    2    1 ar
     2    1    7 ar
     3    1   12 ar
     4    3    2 ar
     5    2    9 ar
     6   14    3 ar
     7    4    5 1 
     8    4    6 2 
     9    4   14 1 
    10    5   15 2 
    11    6   16 1 
    12    7    8 ar
    13    8   10 ar
    14    8   11 1 
    15    9   10 ar
    16   12   13 ar
    17   13   14 ar
    18   15   16 1 
    19   17   11 1 
    20   18   11 1 
@<TRIPOS>SUBSTRUCTURE
1 MOL         1
@<TRIPOS>MOLECULE
query molecule
   18    20     1     0     0
SMALL
NO_CHARGE

@<TRIPOS>ATOM
      1 C4         71.3316   50.3674   11.9176 C.ar      1 MOL     0.0725
      2 C5         70.9567   51.3093   12.8790 C.ar      1 MOL     0.0009
      3 C6         70.1148   52.3636   12.5241 C.ar      1 MOL     0.0187
      4 C7         68.7968   53.5458   10.8399 C.2       1 MOL    -0.0112
      5 C8         69.0085   54.2688    9.7031 C.2       1 MOL     0.0163
      6 C10        67.6876   53.9133   11.5072 C.2       1 MOL     0.0538
      7 N12        72.1255   49.3345   12.2433 N.ar      1 MOL    -0.2334
      8 C13        72.5892   49.1728   13.5009 C.ar      1 MOL     0.1153
      9 C15        71.4221   51.1758   14.1874 C.ar      1 MOL     0.0138
     10 C14        72.2515   50.0925   14.5025 C.ar      1 MOL     0.0445
     11 N16        73.3892   48.1440   13.7809 N.pl3     1 MOL    -0.3432
     12 C3         70.8598   50.4884   10.6113 C.ar      1 MOL     0.0295
     13 C2         70.0223   51.5481   10.2544 C.ar      1 MOL     0.0108
     14 C1         69.6547   52.5025   11.2042 C.ar      1 MOL    -0.0171
     15 C11        68.1403   55.2451    9.3953 C.2       1 MOL     0.0459
     16 S9         67.0007   55.1997   10.6200 S.3       1 MOL    -0.1054
     17 H161       74.3372   48.1322   13.4327 H         1 MOL     0.1442
     18 H162       73.0474   47.3764   14.3411 H         1 MOL     0.1442
@<TRIPOS>BOND
     1    2    1 ar
     2    1    7 ar
     3    1   12 ar
     4    3    2 ar
     5    2    9 ar
     6   14    3 ar
     7    4    5 1 
     8    4    6 2 
     9    4   14 1 
    10    5   15 2 
    11    6   16 1 
    12    7    8 ar
    13    8   10 ar
    14    8   11 1 
    15    9   10 ar
    16   12   13 ar
    17   13   14 ar
    18   15   16 1 
    19   17   11 1 
    20   18   11 1 
@<TRIPOS>SUBSTRUCTURE
1 MOL         1
@<TRIPOS>MOLECULE
query molecule
   18    20     1     0     0
SMALL
NO_CHARGE

@<TRIPOS>ATOM
      1 C4         72.0748   49.4229    8.4211 C.ar      1 MOL     0.0725
      2 C5         70.9505   50.1768    8.7668 C.ar      1 MOL     0.0009
      3 C6         70.7650   50.5767   10.0906 C.ar      1 MOL     0.0187
      4 C7         71.5196   50.6211   12.4144 C.2       1 MOL    -0.0112
      5 C8         72.4671   50.3547   13.3583 C.2       1 MOL     0.0163
      6 C10        70.4802   51.3326   12.8875 C.2       1 MOL     0.0538
      7 N12        72.2817   49.0446    7.1494 N.ar      1 MOL    -0.2334
      8 C13        71.4151   49.3736    6.1677 C.ar      1 MOL     0.1153
      9 C15        70.0316   50.5299    7.7783 C.ar      1 MOL     0.0138
     10 C14        70.2667   50.1212    6.4598 C.ar      1 MOL     0.0445
     11 N16        71.6465   48.9645    4.9205 N.pl3     1 MOL    -0.3432
     12 C3         73.0031   49.0774    9.4023 C.ar      1 MOL     0.0295
     13 C2         72.8137   49.4720   10.7290 C.ar      1 MOL     0.0108
     14 C1         71.6859   50.2122   11.0867 C.ar      1 MOL    -0.0171
     15 C11        72.2609   50.7892   14.6115 C.2       1 MOL     0.0459
     16 S9         70.7928   51.5897   14.5458 S.3       1 MOL    -0.1054
     17 H161       71.5537   47.9869    4.6842 H         1 MOL     0.1442
     18 H162       71.9147   49.6320    4.2116 H         1 MOL     0.1442
@<TRIPOS>BOND
     1    2    1 ar
     2    1    7 ar
     3    1   12 ar
     4    3    2 ar
     5    2    9 ar
     6   14    3 ar
     7    4    5 1 
     8    4    6 2 
     9    4   14 1 
    10    5   15 2 
    11    6   16 1 
    12    7    8 ar
    13    8   10 ar
    14    8   11 1 
    15    9   10 ar
    16   12   13 ar
    17   13   14 ar
    18   15   16 1 
    19   17   11 1 
    20   18   11 1 
@<TRIPOS>SUBSTRUCTURE
1 MOL         1
@<TRIPOS>MOLECULE
query molecule
   18    20     1     0     0
SMALL
NO_CHARGE

@<TRIPOS>ATOM
      1 C4         66.8944   51.2248   11.5931 C.ar      1 MOL     0.0725
      2 C5         67.7898   50.4885   10.8134 C.ar      1 MOL     0.0009
      3 C6         69.1093   50.3296   11.2378 C.ar      1 MOL     0.0187
      4 C7         70.8720   50.7538   12.8762 C.2       1 MOL    -0.0112
      5 C8         71.6545   49.7426   12.4019 C.2       1 MOL     0.0163
      6 C10        71.5095   51.5590   13.7455 C.2       1 MOL     0.0538
      7 N12        65.6153   51.3732   11.2120 N.ar      1 MOL    -0.2334
      8 C13        65.1536   50.8234   10.0686 C.ar      1 MOL     0.1153
      9 C15        67.3477   49.9110    9.6229 C.ar      1 MOL     0.0138
     10 C14        66.0104   50.0821    9.2444 C.ar      1 MOL     0.0445
     11 N16        63.8815   51.0078    9.7159 N.pl3     1 MOL    -0.3432
     12 C3         67.3270   51.7940   12.7900 C.ar      1 MOL     0.0295
     13 C2         68.6502   51.6407   13.2114 C.ar      1 MOL     0.0108
     14 C1         69.5558   50.9197   12.4317 C.ar      1 MOL    -0.0171
     15 C11        72.9156   49.6456   12.8510 C.2       1 MOL     0.0459
     16 S9         73.0882   50.9305   13.9092 S.3       1 MOL    -0.1054
     17 H161       63.3634   51.7918   10.0860 H         1 MOL     0.1442
     18 H162       63.4357   50.3636    9.0784 H         1 MOL     0.1442
@<TRIPOS>BOND
     1    2    1 ar
     2    1    7 ar
     3    1   12 ar
     4    3    2 ar
     5    2    9 ar
     6   14    3 ar
     7    4    5 1 
     8    4    6 2 
     9    4   14 1 
    10    5   15 2 
    11    6   16 1 
    12    7    8 ar
    13    8   10 ar
    14    8   11 1 
    15    9   10 ar
    16   12   13 ar
    17   13   14 ar
    18   15   16 1 
    19   17   11 1 
    20   18   11 1 
@<TRIPOS>SUBSTRUCTURE
1 MOL         1
@<TRIPOS>MOLECULE
query molecule
   18    20     1     0     0
SMALL
NO_CHARGE

@<TRIPOS>ATOM
      1 C4         64.0477   47.4099   14.6037 C.ar      1 MOL     0.0725
      2 C5         64.5724   46.1856   15.0253 C.ar      1 MOL     0.0009
      3 C6         65.0813   46.0585   16.3181 C.ar      1 MOL     0.0187
      4 C7         65.5844   47.0352   18.5008 C.2       1 MOL    -0.0112
      5 C8         65.9484   48.1348   19.2207 C.2       1 MOL     0.0163
      6 C10        65.7074   45.8839   19.1863 C.2       1 MOL     0.0538
      7 N12        63.5355   47.5476   13.3701 N.ar      1 MOL    -0.2334
      8 C13        63.5129   46.5167   12.4985 C.ar      1 MOL     0.1153
      9 C15        64.5700   45.1005   14.1485 C.ar      1 MOL     0.0138
     10 C14        64.0336   45.2689   12.8660 C.ar      1 MOL     0.0445
     11 N16        63.0117   46.6978   11.2768 N.pl3     1 MOL    -0.3432
     12 C3         64.0360   48.4946   15.4795 C.ar      1 MOL     0.0295
     13 C2         64.5520   48.3692   16.7717 C.ar      1 MOL     0.0108
     14 C1         65.0921   47.1545   17.1967 C.ar      1 MOL    -0.0171
     15 C11        66.3954   47.9592   20.4741 C.2       1 MOL     0.0459
     16 S9         66.3154   46.3065   20.7244 S.3       1 MOL    -0.1054
     17 H161       62.2962   47.3938   11.1226 H         1 MOL     0.1442
     18 H162       63.3474   46.1392   10.5053 H         1 MOL     0.1442
@<TRIPOS>BOND
     1    2    1 ar
     2    1    7 ar
     3    1   12 ar
     4    3    2 ar
     5    2    9 ar
     6   14    3 ar
     7    4    5 1 
     8    4    6 2 
     9    4   14 1 
    10    5   15 2 
    11    6   16 1 
    12    7    8 ar
    13    8   10 ar
    14    8   11 1 
    15    9   10 ar
    16   12   13 ar
    17   13   14 ar
    18   15   16 1 
    19   17   11 1 
    20   18   11 1 
@<TRIPOS>SUBSTRUCTURE
1 MOL         1
@<TRIPOS>MOLECULE
query molecule
   18    20     1     0     0
SMALL
NO_CHARGE

@<TRIPOS>ATOM
      1 C4         71.4900   50.6405   11.8819 C.ar      1 MOL     0.0725
      2 C5         72.6358   49.9221   12.2326 C.ar      1 MOL     0.0009
      3 C6         73.3854   49.2871   11.2419 C.ar      1 MOL     0.0187
      4 C7         73.7422   48.7246    8.8908 C.2       1 MOL    -0.0112
      5 C8         74.0648   49.3859    7.7426 C.2       1 MOL     0.0163
      6 C10        74.2538   47.4817    8.9525 C.2       1 MOL     0.0538
      7 N12        70.7658   51.2750   12.8179 N.ar      1 MOL    -0.2334
      8 C13        71.1143   51.2383   14.1217 C.ar      1 MOL     0.1153
      9 C15        73.0222   49.8589   13.5716 C.ar      1 MOL     0.0138
     10 C14        72.2493   50.5256   14.5303 C.ar      1 MOL     0.0445
     11 N16        70.3598   51.8666   15.0232 N.pl3     1 MOL    -0.3432
     12 C3         71.1058   50.7178   10.5440 C.ar      1 MOL     0.0295
     13 C2         71.8525   50.0760    9.5528 C.ar      1 MOL     0.0108
     14 C1         72.9900   49.3433    9.8952 C.ar      1 MOL    -0.0171
     15 C11        74.8054   48.7470    6.8234 C.2       1 MOL     0.0459
     16 S9         75.1066   47.2432    7.4931 S.3       1 MOL    -0.1054
     17 H161       69.3892   51.6108   15.1359 H         1 MOL     0.1442
     18 H162       70.7586   52.5985   15.5936 H         1 MOL     0.1442
@<TRIPOS>BOND
     1    2    1 ar
     2    1    7 ar
     3    1   12 ar
     4    3    2 ar
     5    2    9 ar
     6   14    3 ar
     7    4    5 1 
     8    4    6 2 
     9    4   14 1 
    10    5   15 2 
    11    6   16 1 
    12    7    8 ar
    13    8   10 ar
    14    8   11 1 
    15    9   10 ar
    16   12   13 ar
    17   13   14 ar
    18   15   16 1 
    19   17   11 1 
    20   18   11 1 
@<TRIPOS>SUBSTRUCTURE
1 MOL         1
@<TRIPOS>MOLECULE
query molecule
   18    20     1     0     0
SMALL
NO_CHARGE

@<TRIPOS>ATOM
      1 C4         68.7558   48.9483    6.8014 C.ar      1 MOL     0.0725
      2 C5         69.2314   48.2172    7.8928 C.ar      1 MOL     0.0009
      3 C6         70.5985   48.1973    8.1704 C.ar      1 MOL     0.0187
      4 C7         72.8790   48.8892    7.6296 C.2       1 MOL    -0.0112
      5 C8         73.5999   50.0467    7.6176 C.2       1 MOL     0.0163
      6 C10        73.6070   47.8106    7.9719 C.2       1 MOL     0.0538
      7 N12        67.4418   48.9960    6.5287 N.ar      1 MOL    -0.2334
      8 C13        66.5408   48.3410    7.2914 C.ar      1 MOL     0.1153
      9 C15        68.3285   47.5238    8.6992 C.ar      1 MOL     0.0138
     10 C14        66.9634   47.5856    8.3932 C.ar      1 MOL     0.0445
     11 N16        65.2466   48.3986    6.9780 N.pl3     1 MOL    -0.3432
     12 C3         69.6519   49.6534    5.9992 C.ar      1 MOL     0.0295
     13 C2         71.0216   49.6278    6.2731 C.ar      1 MOL     0.0108
     14 C1         71.5077   48.8879    7.3520 C.ar      1 MOL    -0.0171
     15 C11        74.9084   49.9880    7.9111 C.2       1 MOL     0.0459
     16 S9         75.1977   48.3717    8.2341 S.3       1 MOL    -0.1054
     17 H161       64.7412   49.2676    7.0769 H         1 MOL     0.1442
     18 H162       64.7711   47.5735    6.6416 H         1 MOL     0.1442
@<TRIPOS>BOND
     1    2    1 ar
     2    1    7 ar
     3    1   12 ar
     4    3    2 ar
     5    2    9 ar
     6   14    3 ar
     7    4    5 1 
     8    4    6 2 
     9    4   14 1 
    10    5   15 2 
    11    6   16 1 
    12    7    8 ar
    13    8   10 ar
    14    8   11 1 
    15    9   10 ar
    16   12   13 ar
    17   13   14 ar
    18   15   16 1 
    19   17   11 1 
    20   18   11 1 
@<TRIPOS>SUBSTRUCTURE
1 MOL         1
@<TRIPOS>MOLECULE
query molecule
   18    20     1     0     0
SMALL
NO_CHARGE

@<TRIPOS>ATOM
      1 C4         73.0651   47.4176    3.1802 C.ar      1 MOL     0.0725
      2 C5         73.8078   46.2977    3.5625 C.ar      1 MOL     0.0009
      3 C6         74.4319   46.2734    4.8100 C.ar      1 MOL     0.0187
      4 C7         74.9478   47.3531    6.9407 C.2       1 MOL    -0.0112
      5 C8         75.2092   48.5092    7.6151 C.2       1 MOL     0.0163
      6 C10        75.2872   46.2465    7.6268 C.2       1 MOL     0.0538
      7 N12        72.4407   47.4528    1.9919 N.ar      1 MOL    -0.2334
      8 C13        72.5111   46.4167    1.1292 C.ar      1 MOL     0.1153
      9 C15        73.9061   45.2110    2.6931 C.ar      1 MOL     0.0138
     10 C14        73.2492   45.2720    1.4579 C.ar      1 MOL     0.0445
     11 N16        71.8917   46.4967   -0.0483 N.pl3     1 MOL    -0.3432
     12 C3         72.9528   48.5016    4.0498 C.ar      1 MOL     0.0295
     13 C2         73.5836   48.4800    5.2961 C.ar      1 MOL     0.0108
     14 C1         74.3403   47.3721    5.6805 C.ar      1 MOL    -0.0171
     15 C11        75.7759   48.4269    8.8291 C.2       1 MOL     0.0459
     16 S9         75.9509   46.7855    9.1043 S.3       1 MOL    -0.1054
     17 H161       72.3044   46.0709   -0.8660 H         1 MOL     0.1442
     18 H162       71.0097   46.9830   -0.1230 H         1 MOL     0.1442
@<TRIPOS>BOND
     1    2    1 ar
     2    1    7 ar
     3    1   12 ar
     4    3    2 ar
     5    2    9 ar
     6   14    3 ar
     7    4    5 1 
     8    4    6 2 
     9    4   14 1 
    10    5   15 2 
    11    6   16 1 
    12    7    8 ar
    13    8   10 ar
    14    8   11 1 
    15    9   10 ar
    16   12   13 ar
    17   13   14 ar
    18   15   16 1 
    19   17   11 1 
    20   18   11 1 
@<TRIPOS>SUBSTRUCTURE
1 MOL         1
@<TRIPOS>MOLECULE
query molecule
   18    20     1     0     0
SMALL
NO_CHARGE

@<TRIPOS>ATOM
      1 C4         66.7555   50.0230    9.0109 C.ar      1 MOL     0.0725
      2 C5         66.0453   50.0524   10.2136 C.ar      1 MOL     0.0009
      3 C6         65.0403   49.1133   10.4477 C.ar      1 MOL     0.0187
      4 C7         63.7242   47.1919    9.7080 C.2       1 MOL    -0.0112
      5 C8         63.4595   46.7378   10.9664 C.2       1 MOL     0.0163
      6 C10        62.9166   46.6648    8.7696 C.2       1 MOL     0.0538
      7 N12        67.7394   50.9057    8.7743 N.ar      1 MOL    -0.2334
      8 C13        68.0722   51.8483    9.6817 C.ar      1 MOL     0.1153
      9 C15        66.3594   51.0166   11.1717 C.ar      1 MOL     0.0138
     10 C14        67.3869   51.9287   10.9012 C.ar      1 MOL     0.0445
     11 N16        69.0432   52.7177    9.4026 N.pl3     1 MOL    -0.3432
     12 C3         66.4546   49.0540    8.0547 C.ar      1 MOL     0.0295
     13 C2         65.4436   48.1181    8.2863 C.ar      1 MOL     0.0108
     14 C1         64.7184   48.1491    9.4783 C.ar      1 MOL    -0.0171
     15 C11        62.4807   45.8335   11.1270 C.2       1 MOL     0.0459
     16 S9         61.8745   45.5876    9.5867 S.3       1 MOL    -0.1054
     17 H161       68.8287   53.5738    8.9116 H         1 MOL     0.1442
     18 H162       69.9934   52.5203    9.6821 H         1 MOL     0.1442
@<TRIPOS>BOND
     1    2    1 ar
     2    1    7 ar
     3    1   12 ar
     4    3    2 ar
     5    2    9 ar
     6   14    3 ar
     7    4    5 1 
     8    4    6 2 
     9    4   14 1 
    10    5   15 2 
    11    6   16 1 
    12    7    8 ar
    13    8   10 ar
    14    8   11 1 
    15    9   10 ar
    16   12   13 ar
    17   13   14 ar
    18   15   16 1 
    19   17   11 1 
    20   18   11 1 
@<TRIPOS>SUBSTRUCTURE
1 MOL         1
@<TRIPOS>MOLECULE
query molecule
   18    20     1     0     0
SMALL
NO_CHARGE

@<TRIPOS>ATOM
      1 C4         64.5059   47.4975    8.0138 C.ar      1 MOL     0.0725
      2 C5         64.9706   48.0121    9.2268 C.ar      1 MOL     0.0009
      3 C6         64.3199   47.6791   10.4151 C.ar      1 MOL     0.0187
      4 C7         62.5367   46.4931   11.5920 C.2       1 MOL    -0.0112
      5 C8         63.2362   46.0471   12.6743 C.2       1 MOL     0.0163
      6 C10        61.2132   46.5896   11.8148 C.2       1 MOL     0.0538
      7 N12        65.1297   47.7903    6.8613 N.ar      1 MOL    -0.2334
      8 C13        66.2175   48.5894    6.8334 C.ar      1 MOL     0.1153
      9 C15        66.0893   48.8456    9.2341 C.ar      1 MOL     0.0138
     10 C14        66.7211   49.1396    8.0195 C.ar      1 MOL     0.0445
     11 N16        66.7985   48.8706    5.6672 N.pl3     1 MOL    -0.3432
     12 C3         63.3959   46.6540    8.0014 C.ar      1 MOL     0.0295
     13 C2         62.7402   46.3262    9.1907 C.ar      1 MOL     0.0108
     14 C1         63.1878   46.8476   10.4055 C.ar      1 MOL    -0.0171
     15 C11        62.5585   45.7405   13.7916 C.2       1 MOL     0.0459
     16 S9         60.9599   46.0676   13.4202 S.3       1 MOL    -0.1054
     17 H161       67.8053   48.9223    5.6040 H         1 MOL     0.1442
     18 H162       66.2322   49.0318    4.8467 H         1 MOL     0.1442
@<TRIPOS>BOND
     1    2    1 ar
     2    1    7 ar
     3    1   12 ar
     4    3    2 ar
     5    2    9 ar
     6   14    3 ar
     7    4    5 1 
     8    4    6 2 
     9    4   14 1 
    10    5   15 2 
    11    6   16 1 
    12    7    8 ar
    13    8   10 ar
    14    8   11 1 
    15    9   10 ar
    16   12   13 ar
    17   13   14 ar
    18   15   16 1 
    19   17   11 1 
    20   18   11 1 
@<TRIPOS>SUBSTRUCTURE
1 MOL         1
@<TRIPOS>MOLECULE
query molecule
   18    20     1     0     0
SMALL
NO_CHARGE

@<TRIPOS>ATOM
      1 C4         64.2678   49.7856   11.7191 C.ar      1 MOL     0.0725
      2 C5         65.0825   50.0305   12.8273 C.ar      1 MOL     0.0009
      3 C6         66.2920   50.7059   12.6620 C.ar      1 MOL     0.0187
      4 C7         67.9150   51.8182   11.2128 C.2       1 MOL    -0.0112
      5 C8         69.0874   51.3346   11.7141 C.2       1 MOL     0.0163
      6 C10        68.0621   52.9630   10.5212 C.2       1 MOL     0.0538
      7 N12        63.0909   49.1544   11.8598 N.ar      1 MOL    -0.2334
      8 C13        62.6582   48.7338   13.0675 C.ar      1 MOL     0.1153
      9 C15        64.6686   49.6048   14.0898 C.ar      1 MOL     0.0138
     10 C14        63.4391   48.9456   14.2113 C.ar      1 MOL     0.0445
     11 N16        61.4921   48.0954   13.1637 N.pl3     1 MOL    -0.3432
     12 C3         64.6701   50.2196   10.4567 C.ar      1 MOL     0.0295
     13 C2         65.8846   50.8898   10.2902 C.ar      1 MOL     0.0108
     14 C1         66.7122   51.1255   11.3890 C.ar      1 MOL    -0.0171
     15 C11        70.2124   52.0336   11.4963 C.2       1 MOL     0.0459
     16 S9         69.7229   53.3517   10.5889 S.3       1 MOL    -0.1054
     17 H161       60.7111   48.3812   12.5906 H         1 MOL     0.1442
     18 H162       61.3894   47.3258   13.8097 H         1 MOL     0.1442
@<TRIPOS>BOND
     1    2    1 ar
     2    1    7 ar
     3    1   12 ar
     4    3    2 ar
     5    2    9 ar
     6   14    3 ar
     7    4    5 1 
     8    4    6 2 
     9    4   14 1 
    10    5   15 2 
    11    6   16 1 
    12    7    8 ar
    13    8   10 ar
    14    8   11 1 
    15    9   10 ar
    16   12   13 ar
    17   13   14 ar
    18   15   16 1 
    19   17   11 1 
    20   18   11 1 
@<TRIPOS>SUBSTRUCTURE
1 MOL         1
@<TRIPOS>MOLECULE
query molecule
   18    20     1     0     0
SMALL
NO_CHARGE

@<TRIPOS>ATOM
      1 C4         64.3391   48.2606   14.5991 C.ar      1 MOL     0.0725
      2 C5         64.2323   46.8743   14.4627 C.ar      1 MOL     0.0009
      3 C6         63.7957   46.3288   13.2551 C.ar      1 MOL     0.0187
      4 C7         63.0181   46.6231   10.9572 C.2       1 MOL    -0.0112
      5 C8         63.8995   46.4039    9.9400 C.2       1 MOL     0.0163
      6 C10        61.7627   46.2342   10.6687 C.2       1 MOL     0.0538
      7 N12        64.7756   48.8047   15.7465 N.ar      1 MOL    -0.2334
      8 C13        65.1206   48.0374   16.8025 C.ar      1 MOL     0.1153
      9 C15        64.5753   46.0515   15.5358 C.ar      1 MOL     0.0138
     10 C14        65.0247   46.6418   16.7235 C.ar      1 MOL     0.0445
     11 N16        65.5329   48.6158   17.9303 N.pl3     1 MOL    -0.3432
     12 C3         64.0096   49.0876   13.5262 C.ar      1 MOL     0.0295
     13 C2         63.5658   48.5416   12.3192 C.ar      1 MOL     0.0108
     14 C1         63.4413   47.1586   12.1785 C.ar      1 MOL    -0.0171
     15 C11        63.4381   45.8697    8.7983 C.2       1 MOL     0.0459
     16 S9         61.8054   45.6270    9.0740 S.3       1 MOL    -0.1054
     17 H161       65.4464   48.1266   18.8097 H         1 MOL     0.1442
     18 H162       65.9320   49.5433   17.9056 H         1 MOL     0.1442
@<TRIPOS>BOND
     1    2    1 ar
     2    1    7 ar
     3    1   12 ar
     4    3    2 ar
     5    2    9 ar
     6   14    3 ar
     7    4    5 1 
     8    4    6 2 
     9    4   14 1 
    10    5   15 2 
    11    6   16 1 
    12    7    8 ar
    13    8   10 ar
    14    8   11 1 
    15    9   10 ar
    16   12   13 ar
    17   13   14 ar
    18   15   16 1 
    19   17   11 1 
    20   18   11 1 
@<TRIPOS>SUBSTRUCTURE
1 MOL         1
@<TRIPOS>MOLECULE
query molecule
   18    20     1     0     0
SMALL
NO_CHARGE

@<TRIPOS>ATOM
      1 C4         67.4667   46.2424    7.5062 C.ar      1 MOL     0.0725
      2 C5         68.8592   46.1549    7.4339 C.ar      1 MOL     0.0009
      3 C6         69.4886   44.9292    7.6533 C.ar      1 MOL     0.0187
      4 C7         69.3576   42.5451    8.1731 C.2       1 MOL    -0.0112
      5 C8         68.8054   41.6094    8.9973 C.2       1 MOL     0.0163
      6 C10        70.4894   42.1291    7.5761 C.2       1 MOL     0.0538
      7 N12        66.8406   47.4084    7.2793 N.ar      1 MOL    -0.2334
      8 C13        67.5295   48.5301    6.9793 C.ar      1 MOL     0.1153
      9 C15        69.6029   47.2959    7.1314 C.ar      1 MOL     0.0138
     10 C14        68.9282   48.5013    6.9021 C.ar      1 MOL     0.0445
     11 N16        66.8728   49.6724    6.7779 N.pl3     1 MOL    -0.3432
     12 C3         66.7173   45.1030    7.7959 C.ar      1 MOL     0.0295
     13 C2         67.3480   43.8771    8.0224 C.ar      1 MOL     0.0108
     14 C1         68.7394   43.7832    7.9674 C.ar      1 MOL    -0.0171
     15 C11        69.4344   40.4322    9.1401 C.2       1 MOL     0.0459
     16 S9         70.7772   40.5467    8.1478 S.3       1 MOL    -0.1054
     17 H161       66.6965   49.9944    5.8369 H         1 MOL     0.1442
     18 H162       66.5513   50.2159    7.5661 H         1 MOL     0.1442
@<TRIPOS>BOND
     1    2    1 ar
     2    1    7 ar
     3    1   12 ar
     4    3    2 ar
     5    2    9 ar
     6   14    3 ar
     7    4    5 1 
     8    4    6 2 
     9    4   14 1 
    10    5   15 2 
    11    6   16 1 
    12    7    8 ar
    13    8   10 ar
    14    8   11 1 
    15    9   10 ar
    16   12   13 ar
    17   13   14 ar
    18   15   16 1 
    19   17   11 1 
    20   18   11 1 
@<TRIPOS>SUBSTRUCTURE
1 MOL         1
@<TRIPOS>MOLECULE
query molecule
   18    20     1     0     0
SMALL
NO_CHARGE

@<TRIPOS>ATOM
      1 C4         64.6961   47.7045   16.3342 C.ar      1 MOL     0.0725
      2 C5         63.9791   48.5365   15.4707 C.ar      1 MOL     0.0009
      3 C6         63.6274   49.8226   15.8813 C.ar      1 MOL     0.0187
      4 C7         63.6353   51.5790   17.5804 C.2       1 MOL    -0.0112
      5 C8         64.4241   52.6460   17.2661 C.2       1 MOL     0.0163
      6 C10        62.5284   51.9173   18.2665 C.2       1 MOL     0.0538
      7 N12        65.0609   46.4703   15.9509 N.ar      1 MOL    -0.2334
      8 C13        64.7469   45.9918   14.7281 C.ar      1 MOL     0.1153
      9 C15        63.6332   48.0721   14.2014 C.ar      1 MOL     0.0138
     10 C14        64.0217   46.7804   13.8252 C.ar      1 MOL     0.0445
     11 N16        65.1121   44.7550   14.3911 N.pl3     1 MOL    -0.3432
     12 C3         65.0554   48.1673   17.5993 C.ar      1 MOL     0.0295
     13 C2         64.6972   49.4527   18.0130 C.ar      1 MOL     0.0108
     14 C1         63.9678   50.2856   17.1631 C.ar      1 MOL    -0.0171
     15 C11        64.0435   53.8657   17.6775 C.2       1 MOL     0.0459
     16 S9         62.5979   53.6094   18.4808 S.3       1 MOL    -0.1054
     17 H161       66.0911   44.5254   14.2968 H         1 MOL     0.1442
     18 H162       64.4097   44.0473   14.2300 H         1 MOL     0.1442
@<TRIPOS>BOND
     1    2    1 ar
     2    1    7 ar
     3    1   12 ar
     4    3    2 ar
     5    2    9 ar
     6   14    3 ar
     7    4    5 1 
     8    4    6 2 
     9    4   14 1 
    10    5   15 2 
    11    6   16 1 
    12    7    8 ar
    13    8   10 ar
    14    8   11 1 
    15    9   10 ar
    16   12   13 ar
    17   13   14 ar
    18   15   16 1 
    19   17   11 1 
    20   18   11 1 
@<TRIPOS>SUBSTRUCTURE
1 MOL         1
@<TRIPOS>MOLECULE
query molecule
   18    20     1     0     0
SMALL
NO_CHARGE

@<TRIPOS>ATOM
      1 C4         74.4618   48.0107    6.0183 C.ar      1 MOL     0.0725
      2 C5         74.4601   46.6137    6.0008 C.ar      1 MOL     0.0009
      3 C6         74.1858   45.9363    4.8123 C.ar      1 MOL     0.0187
      4 C7         73.6297   45.9752    2.4331 C.2       1 MOL    -0.0112
      5 C8         72.4914   46.2192    1.7229 C.2       1 MOL     0.0163
      6 C10        74.4512   45.0915    1.8374 C.2       1 MOL     0.0538
      7 N12        74.7423   48.6815    7.1473 N.ar      1 MOL    -0.2334
      8 C13        75.0268   48.0347    8.2977 C.ar      1 MOL     0.1153
      9 C15        74.7445   45.9131    7.1732 C.ar      1 MOL     0.0138
     10 C14        75.0307   46.6342    8.3389 C.ar      1 MOL     0.0445
     11 N16        75.2830   48.7361    9.4018 N.pl3     1 MOL    -0.3432
     12 C3         74.1905   48.7165    4.8470 C.ar      1 MOL     0.0295
     13 C2         73.9091   48.0381    3.6586 C.ar      1 MOL     0.0108
     14 C1         73.8900   46.6427    3.6348 C.ar      1 MOL    -0.0171
     15 C11        72.3058   45.5625    0.5671 C.2       1 MOL     0.0459
     16 S9         73.6737   44.6139    0.3948 S.3       1 MOL    -0.1054
     17 H161       75.2092   49.7434    9.3887 H         1 MOL     0.1442
     18 H162       75.5510   48.2605   10.2515 H         1 MOL     0.1442
@<TRIPOS>BOND
     1    2    1 ar
     2    1    7 ar
     3    1   12 ar
     4    3    2 ar
     5    2    9 ar
     6   14    3 ar
     7    4    5 1 
     8    4    6 2 
     9    4   14 1 
    10    5   15 2 
    11    6   16 1 
    12    7    8 ar
    13    8   10 ar
    14    8   11 1 
    15    9   10 ar
    16   12   13 ar
    17   13   14 ar
    18   15   16 1 
    19   17   11 1 
    20   18   11 1 
@<TRIPOS>SUBSTRUCTURE
1 MOL         1
@<TRIPOS>MOLECULE
query molecule
   18    20     1     0     0
SMALL
NO_CHARGE

@<TRIPOS>ATOM
      1 C4         62.5662   52.3850   17.8014 C.ar      1 MOL     0.0725
      2 C5         63.8775   52.3043   17.3260 C.ar      1 MOL     0.0009
      3 C6         64.3819   51.0788   16.8899 C.ar      1 MOL     0.0187
      4 C7         64.0819   48.6865   16.4924 C.2       1 MOL    -0.0112
      5 C8         64.4331   47.7038   17.3703 C.2       1 MOL     0.0163
      6 C10        64.2132   48.3227   15.2037 C.2       1 MOL     0.0538
      7 N12        62.0555   53.5586   18.2076 N.ar      1 MOL    -0.2334
      8 C13        62.7867   54.6930   18.1749 C.ar      1 MOL     0.1153
      9 C15        64.6632   53.4563   17.2835 C.ar      1 MOL     0.0138
     10 C14        64.1101   54.6680   17.7156 C.ar      1 MOL     0.0445
     11 N16        62.2497   55.8354   18.6031 N.pl3     1 MOL    -0.3432
     12 C3         61.7719   51.2396   17.8347 C.ar      1 MOL     0.0295
     13 C2         62.2794   50.0111   17.4044 C.ar      1 MOL     0.0108
     14 C1         63.5930   49.9178   16.9423 C.ar      1 MOL    -0.0171
     15 C11        64.8774   46.5363   16.8789 C.2       1 MOL     0.0459
     16 S9         64.8118   46.7241   15.2173 S.3       1 MOL    -0.1054
     17 H161       61.4422   56.2207   18.1345 H         1 MOL     0.1442
     18 H162       62.6503   56.3157   19.3961 H         1 MOL     0.1442
@<TRIPOS>BOND
     1    2    1 ar
     2    1    7 ar
     3    1   12 ar
     4    3    2 ar
     5    2    9 ar
     6   14    3 ar
     7    4    5 1 
     8    4    6 2 
     9    4   14 1 
    10    5   15 2 
    11    6   16 1 
    12    7    8 ar
    13    8   10 ar
    14    8   11 1 
    15    9   10 ar
    16   12   13 ar
    17   13   14 ar
    18   15   16 1 
    19   17   11 1 
    20   18   11 1 
@<TRIPOS>SUBSTRUCTURE
1 MOL         1
@<TRIPOS>MOLECULE
query molecule
   18    20     1     0     0
SMALL
NO_CHARGE

@<TRIPOS>ATOM
      1 C4         76.0975   45.6047    9.1767 C.ar      1 MOL     0.0725
      2 C5         76.4737   46.6557   10.0167 C.ar      1 MOL     0.0009
      3 C6         75.5021   47.5199   10.5225 C.ar      1 MOL     0.0187
      4 C7         73.1638   48.2087   10.6940 C.2       1 MOL    -0.0112
      5 C8         72.0649   48.5407    9.9579 C.2       1 MOL     0.0163
      6 C10        73.1565   48.7368   11.9316 C.2       1 MOL     0.0538
      7 N12        77.0148   44.7504    8.6950 N.ar      1 MOL    -0.2334
      8 C13        78.3238   44.8781    9.0000 C.ar      1 MOL     0.1153
      9 C15        77.8187   46.8205   10.3482 C.ar      1 MOL     0.0138
     10 C14        78.7576   45.9193    9.8312 C.ar      1 MOL     0.0445
     11 N16        79.2061   44.0203    8.4881 N.pl3     1 MOL    -0.3432
     12 C3         74.7533   45.4274    8.8517 C.ar      1 MOL     0.0295
     13 C2         73.7813   46.2970    9.3526 C.ar      1 MOL     0.0108
     14 C1         74.1493   47.3589   10.1802 C.ar      1 MOL    -0.0171
     15 C11        71.1435   49.3445   10.5116 C.2       1 MOL     0.0459
     16 S9         71.7234   49.6565   12.0500 S.3       1 MOL    -0.1054
     17 H161       80.1362   43.9600    8.8773 H         1 MOL     0.1442
     18 H162       78.9448   43.4304    7.7110 H         1 MOL     0.1442
@<TRIPOS>BOND
     1    2    1 ar
     2    1    7 ar
     3    1   12 ar
     4    3    2 ar
     5    2    9 ar
     6   14    3 ar
     7    4    5 1 
     8    4    6 2 
     9    4   14 1 
    10    5   15 2 
    11    6   16 1 
    12    7    8 ar
    13    8   10 ar
    14    8   11 1 
    15    9   10 ar
    16   12   13 ar
    17   13   14 ar
    18   15   16 1 
    19   17   11 1 
    20   18   11 1 
@<TRIPOS>SUBSTRUCTURE
1 MOL         1
@<TRIPOS>MOLECULE
query molecule
   18    20     1     0     0
SMALL
NO_CHARGE

@<TRIPOS>ATOM
      1 C4         78.5073   45.3378    8.4531 C.ar      1 MOL     0.0725
      2 C5         79.8557   45.1313    8.7551 C.ar      1 MOL     0.0009
      3 C6         80.3773   45.6098    9.9574 C.ar      1 MOL     0.0187
      4 C7         80.0741   46.7868   12.0774 C.2       1 MOL    -0.0112
      5 C8         80.3225   48.1135   12.2722 C.2       1 MOL     0.0163
      6 C10        80.3210   46.0325   13.1639 C.2       1 MOL     0.0538
      7 N12        77.9814   44.8685    7.3102 N.ar      1 MOL    -0.2334
      8 C13        78.7321   44.1889    6.4172 C.ar      1 MOL     0.1153
      9 C15        80.6619   44.4376    7.8523 C.ar      1 MOL     0.0138
     10 C14        80.0920   43.9606    6.6655 C.ar      1 MOL     0.0445
     11 N16        78.1775   43.7540    5.2859 N.pl3     1 MOL    -0.3432
     12 C3         77.6937   46.0196    9.3569 C.ar      1 MOL     0.0295
     13 C2         78.2177   46.5047   10.5577 C.ar      1 MOL     0.0108
     14 C1         79.5669   46.3166   10.8612 C.ar      1 MOL    -0.0171
     15 C11        80.7904   48.5076   13.4670 C.2       1 MOL     0.0459
     16 S9         80.8868   47.1012   14.3687 S.3       1 MOL    -0.1054
     17 H161       78.2763   44.2908    4.4361 H         1 MOL     0.1442
     18 H162       77.6583   42.8877    5.2785 H         1 MOL     0.1442
@<TRIPOS>BOND
     1    2    1 ar
     2    1    7 ar
     3    1   12 ar
     4    3    2 ar
     5    2    9 ar
     6   14    3 ar
     7    4    5 1 
     8    4    6 2 
     9    4   14 1 
    10    5   15 2 
    11    6   16 1 
    12    7    8 ar
    13    8   10 ar
    14    8   11 1 
    15    9   10 ar
    16   12   13 ar
    17   13   14 ar
    18   15   16 1 
    19   17   11 1 
    20   18   11 1 
@<TRIPOS>SUBSTRUCTURE
1 MOL         1
@<TRIPOS>MOLECULE
query molecule
   18    20     1     0     0
SMALL
NO_CHARGE

@<TRIPOS>ATOM
      1 C4         76.9020   43.1211   14.2277 C.ar      1 MOL     0.0725
      2 C5         78.2882   42.9615   14.2990 C.ar      1 MOL     0.0009
      3 C6         79.1091   43.6191   13.3824 C.ar      1 MOL     0.0187
      4 C7         79.3705   45.1028   11.4584 C.2       1 MOL    -0.0112
      5 C8         79.4063   44.7419   10.1438 C.2       1 MOL     0.0163
      6 C10        80.1408   46.1695   11.7401 C.2       1 MOL     0.0538
      7 N12        76.0958   42.5123   15.1123 N.ar      1 MOL    -0.2334
      8 C13        76.5919   41.7273   16.0923 C.ar      1 MOL     0.1153
      9 C15        78.8347   42.1530   15.2960 C.ar      1 MOL     0.0138
     10 C14        77.9739   41.5258   16.2050 C.ar      1 MOL     0.0445
     11 N16        75.7579   41.1263   16.9406 N.pl3     1 MOL    -0.3432
     12 C3         76.3506   43.9376   13.2413 C.ar      1 MOL     0.0295
     13 C2         77.1723   44.5905   12.3192 C.ar      1 MOL     0.0108
     14 C1         78.5571   44.4251   12.3730 C.ar      1 MOL    -0.0171
     15 C11        80.1911   45.4419    9.3097 C.2       1 MOL     0.0459
     16 S9         80.8855   46.6218   10.2721 S.3       1 MOL    -0.1054
     17 H161       74.8530   41.5321   17.1320 H         1 MOL     0.1442
     18 H162       76.0306   40.2650   17.3921 H         1 MOL     0.1442
@<TRIPOS>BOND
     1    2    1 ar
     2    1    7 ar
     3    1   12 ar
     4    3    2 ar
     5    2    9 ar
     6   14    3 ar
     7    4    5 1 
     8    4    6 2 
     9    4   14 1 
    10    5   15 2 
    11    6   16 1 
    12    7    8 ar
    13    8   10 ar
    14    8   11 1 
    15    9   10 ar
    16   12   13 ar
    17   13   14 ar
    18   15   16 1 
    19   17   11 1 
    20   18   11 1 
@<TRIPOS>SUBSTRUCTURE
1 MOL         1
@<TRIPOS>MOLECULE
query molecule
   18    20     1     0     0
SMALL
NO_CHARGE

@<TRIPOS>ATOM
      1 C4         62.1036   54.6918   18.0753 C.ar      1 MOL     0.0725
      2 C5         63.4742   54.7833   18.3302 C.ar      1 MOL     0.0009
      3 C6         64.0130   55.9817   18.7995 C.ar      1 MOL     0.0187
      4 C7         63.7217   58.3089   19.4856 C.2       1 MOL    -0.0112
      5 C8         63.2437   58.8762   20.6299 C.2       1 MOL     0.0163
      6 C10        64.7430   58.9922   18.9375 C.2       1 MOL     0.0538
      7 N12        61.5625   53.5419   17.6418 N.ar      1 MOL    -0.2334
      8 C13        62.3185   52.4427   17.4347 C.ar      1 MOL     0.1153
      9 C15        64.2861   53.6681   18.1219 C.ar      1 MOL     0.0138
     10 C14        63.6998   52.4809   17.6662 C.ar      1 MOL     0.0445
     11 N16        61.7469   51.3248   16.9872 N.pl3     1 MOL    -0.3432
     12 C3         61.2851   55.7992   18.2934 C.ar      1 MOL     0.0295
     13 C2         61.8258   57.0012   18.7568 C.ar      1 MOL     0.0108
     14 C1         63.1961   57.1068   18.9996 C.ar      1 MOL    -0.0171
     15 C11        63.8008   60.0200   21.0575 C.2       1 MOL     0.0459
     16 S9         65.0012   60.3501   19.9392 S.3       1 MOL    -0.1054
     17 H161       61.3664   50.6555   17.6410 H         1 MOL     0.1442
     18 H162       61.6941   51.1470   15.9944 H         1 MOL     0.1442
@<TRIPOS>BOND
     1    2    1 ar
     2    1    7 ar
     3    1   12 ar
     4    3    2 ar
     5    2    9 ar
     6   14    3 ar
     7    4    5 1 
     8    4    6 2 
     9    4   14 1 
    10    5   15 2 
    11    6   16 1 
    12    7    8 ar
    13    8   10 ar
    14    8   11 1 
    15    9   10 ar
    16   12   13 ar
    17   13   14 ar
    18   15   16 1 
    19   17   11 1 
    20   18   11 1 
@<TRIPOS>SUBSTRUCTURE
1 MOL         1
@<TRIPOS>MOLECULE
query molecule
   18    20     1     0     0
SMALL
NO_CHARGE

@<TRIPOS>ATOM
      1 C4         68.7490   41.8466    9.9069 C.ar      1 MOL     0.0725
      2 C5         69.4306   40.6726   10.2371 C.ar      1 MOL     0.0009
      3 C6         70.2757   40.0757    9.3011 C.ar      1 MOL     0.0187
      4 C7         71.2913   40.0501    7.0786 C.2       1 MOL    -0.0112
      5 C8         71.2623   40.4310    5.7695 C.2       1 MOL     0.0163
      6 C10        72.2337   39.1275    7.3452 C.2       1 MOL     0.0538
      7 N12        67.9461   42.4472   10.8002 N.ar      1 MOL    -0.2334
      8 C13        67.7674   41.9397   12.0384 C.ar      1 MOL     0.1153
      9 C15        69.2649   40.1176   11.5063 C.ar      1 MOL     0.0138
     10 C14        68.4200   40.7599   12.4198 C.ar      1 MOL     0.0445
     11 N16        66.9487   42.5557   12.8909 N.pl3     1 MOL    -0.3432
     12 C3         68.9201   42.4127    8.6444 C.ar      1 MOL     0.0295
     13 C2         69.7609   41.8112    7.7048 C.ar      1 MOL     0.0108
     14 C1         70.4341   40.6300    8.0201 C.ar      1 MOL    -0.0171
     15 C11        72.1221   39.8529    4.9162 C.2       1 MOL     0.0459
     16 S9         73.0099   38.7952    5.8616 S.3       1 MOL    -0.1054
     17 H161       66.7913   42.1674   13.8100 H         1 MOL     0.1442
     18 H162       66.4856   43.4107   12.6180 H         1 MOL     0.1442
@<TRIPOS>BOND
     1    2    1 ar
     2    1    7 ar
     3    1   12 ar
     4    3    2 ar
     5    2    9 ar
     6   14    3 ar
     7    4    5 1 
     8    4    6 2 
     9    4   14 1 
    10    5   15 2 
    11    6   16 1 
    12    7    8 ar
    13    8   10 ar
    14    8   11 1 
    15    9   10 ar
    16   12   13 ar
    17   13   14 ar
    18   15   16 1 
    19   17   11 1 
    20   18   11 1 
@<TRIPOS>SUBSTRUCTURE
1 MOL         1
@<TRIPOS>MOLECULE
query molecule
   18    20     1     0     0
SMALL
NO_CHARGE

@<TRIPOS>ATOM
      1 C4         70.8124   42.6042    6.4795 C.ar      1 MOL     0.0725
      2 C5         70.9514   43.4701    7.5671 C.ar      1 MOL     0.0009
      3 C6         70.4454   43.1024    8.8142 C.ar      1 MOL     0.0187
      4 C7         69.2805   41.4913   10.2351 C.2       1 MOL    -0.0112
      5 C8         69.4646   40.2246   10.7056 C.2       1 MOL     0.0163
      6 C10        68.6349   42.2937   11.1010 C.2       1 MOL     0.0538
      7 N12        71.3094   42.9310    5.2756 N.ar      1 MOL    -0.2334
      8 C13        71.9529   44.1006    5.0740 C.ar      1 MOL     0.1153
      9 C15        71.6063   44.6895    7.3931 C.ar      1 MOL     0.0138
     10 C14        72.1133   45.0100    6.1277 C.ar      1 MOL     0.0445
     11 N16        72.4170   44.3964    3.8600 N.pl3     1 MOL    -0.3432
     12 C3         70.1699   41.3788    6.6500 C.ar      1 MOL     0.0295
     13 C2         69.6570   41.0136    7.8972 C.ar      1 MOL     0.0108
     14 C1         69.7777   41.8785    8.9859 C.ar      1 MOL    -0.0171
     15 C11        68.9817   39.9171   11.9197 C.2       1 MOL     0.0459
     16 S9         68.2855   41.3359   12.4701 S.3       1 MOL    -0.1054
     17 H161       73.2612   43.9575    3.5212 H         1 MOL     0.1442
     18 H162       71.9244   45.0594    3.2788 H         1 MOL     0.1442
@<TRIPOS>BOND
     1    2    1 ar
     2    1    7 ar
     3    1   12 ar
     4    3    2 ar
     5    2    9 ar
     6   14    3 ar
     7    4    5 1 
     8    4    6 2 
     9    4   14 1 
    10    5   15 2 
    11    6   16 1 
    12    7    8 ar
    13    8   10 ar
    14    8   11 1 
    15    9   10 ar
    16   12   13 ar
    17   13   14 ar
    18   15   16 1 
    19   17   11 1 
    20   18   11 1 
@<TRIPOS>SUBSTRUCTURE
1 MOL         1
