@<TRIPOS>MOLECULE
query molecule
   18    20     1     0     0
SMALL
NO_CHARGE

@<TRIPOS>ATOM
      1 C4         68.5793   50.2706    8.5539 C.ar      1 MOL     0.0725
      2 C5         68.8058   49.2416    9.4714 C.ar      1 MOL     0.0009
      3 C6         69.4225   49.5241   10.6906 C.ar      1 MOL     0.0187
      4 C7         70.4428   51.1285   12.2255 C.2       1 MOL    -0.0112
      5 C8         71.5720   50.4808   12.6317 C.2       1 MOL     0.0163
      6 C10        70.0322   52.0766   13.0875 C.2       1 MOL     0.0538
      7 N12        67.9698   50.0230    7.3832 N.ar      1 MOL    -0.2334
      8 C13        67.5609   48.7797    7.0520 C.ar      1 MOL     0.1153
      9 C15        68.4009   47.9435    9.1593 C.ar      1 MOL     0.0138
     10 C14        67.7705   47.7090    7.9311 C.ar      1 MOL     0.0445
     11 N16        66.9752   48.5711    5.8730 N.pl3     1 MOL    -0.3432
     12 C3         68.9704   51.5721    8.8652 C.ar      1 MOL     0.0295
     13 C2         69.5942   51.8536   10.0832 C.ar      1 MOL     0.0108
     14 C1         69.8385   50.8297   10.9996 C.ar      1 MOL    -0.0171
     15 C11        72.1176   50.8242   13.8090 C.2       1 MOL     0.0459
     16 S9         71.1346   52.0474   14.3904 S.3       1 MOL    -0.1054
     17 H161       66.8831   47.6315    5.5141 H         1 MOL     0.1442
     18 H162       66.6234   49.3526    5.3386 H         1 MOL     0.1442
@<TRIPOS>BOND
     1    2    1 ar
     2    1    7 ar
     3    1   12 ar
     4    3    2 ar
     5    2    9 ar
     6   14    3 ar
     7    4    5 1 
     8    4    6 2 
     9    4   14 1 
    10    5   15 2 
    11    6   16 1 
    12    7    8 ar
    13    8   10 ar
    14    8   11 1 
    15    9   10 ar
    16   12   13 ar
    17   13   14 ar
    18   15   16 1 
    19   17   11 1 
    20   18   11 1 
@<TRIPOS>SUBSTRUCTURE
1 MOL         1
@<TRIPOS>MOLECULE
query molecule
   18    20     1     0     0
SMALL
NO_CHARGE

@<TRIPOS>ATOM
      1 C4         68.7030   50.0659    8.4272 C.ar      1 MOL     0.0725
      2 C5         69.1277   48.9796    9.1964 C.ar      1 MOL     0.0009
      3 C6         69.8004   49.2027   10.3982 C.ar      1 MOL     0.0187
      4 C7         70.7344   50.7459   12.0467 C.2       1 MOL    -0.0112
      5 C8         71.8426   50.0329   12.3980 C.2       1 MOL     0.0163
      6 C10        70.4008   51.6905   12.9450 C.2       1 MOL     0.0538
      7 N12        68.0370   49.8726    7.2773 N.ar      1 MOL    -0.2334
      8 C13        67.7596   48.6312    6.8251 C.ar      1 MOL     0.1153
      9 C15        68.8625   47.6826    8.7562 C.ar      1 MOL     0.0138
     10 C14        68.1695   47.5059    7.5523 C.ar      1 MOL     0.0445
     11 N16        67.1116   48.4804    5.6701 N.pl3     1 MOL    -0.3432
     12 C3         68.9542   51.3645    8.8680 C.ar      1 MOL     0.0295
     13 C2         69.6339   51.5878   10.0680 C.ar      1 MOL     0.0108
     14 C1         70.0754   50.5090   10.8355 C.ar      1 MOL    -0.0171
     15 C11        72.4436   50.3184   13.5637 C.2       1 MOL     0.0459
     16 S9         71.5431   51.5732   14.2080 S.3       1 MOL    -0.1054
     17 H161       66.2084   48.0286    5.6530 H         1 MOL     0.1442
     18 H162       67.5236   48.8179    4.8120 H         1 MOL     0.1442
@<TRIPOS>BOND
     1    2    1 ar
     2    1    7 ar
     3    1   12 ar
     4    3    2 ar
     5    2    9 ar
     6   14    3 ar
     7    4    5 1 
     8    4    6 2 
     9    4   14 1 
    10    5   15 2 
    11    6   16 1 
    12    7    8 ar
    13    8   10 ar
    14    8   11 1 
    15    9   10 ar
    16   12   13 ar
    17   13   14 ar
    18   15   16 1 
    19   17   11 1 
    20   18   11 1 
@<TRIPOS>SUBSTRUCTURE
1 MOL         1
@<TRIPOS>MOLECULE
query molecule
   18    20     1     0     0
SMALL
NO_CHARGE

@<TRIPOS>ATOM
      1 C4         68.5251   50.3459    8.5460 C.ar      1 MOL     0.0725
      2 C5         68.7842   49.3019    9.4375 C.ar      1 MOL     0.0009
      3 C6         69.4093   49.5703   10.6556 C.ar      1 MOL     0.0187
      4 C7         70.4140   51.1617   12.2142 C.2       1 MOL    -0.0112
      5 C8         71.4730   50.4275   12.6606 C.2       1 MOL     0.0163
      6 C10        70.0809   52.1728   13.0372 C.2       1 MOL     0.0538
      7 N12        67.9070   50.1114    7.3772 N.ar      1 MOL    -0.2334
      8 C13        67.5204   48.8673    7.0229 C.ar      1 MOL     0.1153
      9 C15        68.4029   48.0027    9.1011 C.ar      1 MOL     0.0138
     10 C14        67.7629   47.7821    7.8753 C.ar      1 MOL     0.0445
     11 N16        66.9251   48.6725    5.8464 N.pl3     1 MOL    -0.3432
     12 C3         68.8925   51.6481    8.8819 C.ar      1 MOL     0.0295
     13 C2         69.5247   51.9159   10.0986 C.ar      1 MOL     0.0108
     14 C1         69.8015   50.8773   10.9890 C.ar      1 MOL    -0.0171
     15 C11        72.0318   50.7599   13.8349 C.2       1 MOL     0.0459
     16 S9         71.1581   52.0876   14.3587 S.3       1 MOL    -0.1054
     17 H161       66.0513   49.1350    5.6397 H         1 MOL     0.1442
     18 H162       67.3477   48.0624    5.1614 H         1 MOL     0.1442
@<TRIPOS>BOND
     1    2    1 ar
     2    1    7 ar
     3    1   12 ar
     4    3    2 ar
     5    2    9 ar
     6   14    3 ar
     7    4    5 1 
     8    4    6 2 
     9    4   14 1 
    10    5   15 2 
    11    6   16 1 
    12    7    8 ar
    13    8   10 ar
    14    8   11 1 
    15    9   10 ar
    16   12   13 ar
    17   13   14 ar
    18   15   16 1 
    19   17   11 1 
    20   18   11 1 
@<TRIPOS>SUBSTRUCTURE
1 MOL         1
@<TRIPOS>MOLECULE
query molecule
   18    20     1     0     0
SMALL
NO_CHARGE

@<TRIPOS>ATOM
      1 C4         68.5250   50.3459    8.5459 C.ar      1 MOL     0.0725
      2 C5         68.7841   49.3017    9.4373 C.ar      1 MOL     0.0009
      3 C6         69.4092   49.5700   10.6554 C.ar      1 MOL     0.0187
      4 C7         70.4139   51.1612   12.2143 C.2       1 MOL    -0.0112
      5 C8         71.4727   50.4268   12.6607 C.2       1 MOL     0.0163
      6 C10        70.0808   52.1722   13.0374 C.2       1 MOL     0.0538
      7 N12        67.9070   50.1116    7.3770 N.ar      1 MOL    -0.2334
      8 C13        67.5204   48.8675    7.0226 C.ar      1 MOL     0.1153
      9 C15        68.4029   48.0026    9.1007 C.ar      1 MOL     0.0138
     10 C14        67.7629   47.7822    7.8749 C.ar      1 MOL     0.0445
     11 N16        66.9251   48.6728    5.8460 N.pl3     1 MOL    -0.3432
     12 C3         68.8925   51.6481    8.8820 C.ar      1 MOL     0.0295
     13 C2         69.5247   51.9156   10.0988 C.ar      1 MOL     0.0108
     14 C1         69.8014   50.8769   10.9890 C.ar      1 MOL    -0.0171
     15 C11        72.0316   50.7591   13.8350 C.2       1 MOL     0.0459
     16 S9         71.1579   52.0868   14.3589 S.3       1 MOL    -0.1054
     17 H161       67.4504   48.7815    4.9902 H         1 MOL     0.1442
     18 H162       65.9489   48.4167    5.8102 H         1 MOL     0.1442
@<TRIPOS>BOND
     1    2    1 ar
     2    1    7 ar
     3    1   12 ar
     4    3    2 ar
     5    2    9 ar
     6   14    3 ar
     7    4    5 1 
     8    4    6 2 
     9    4   14 1 
    10    5   15 2 
    11    6   16 1 
    12    7    8 ar
    13    8   10 ar
    14    8   11 1 
    15    9   10 ar
    16   12   13 ar
    17   13   14 ar
    18   15   16 1 
    19   17   11 1 
    20   18   11 1 
@<TRIPOS>SUBSTRUCTURE
1 MOL         1
@<TRIPOS>MOLECULE
query molecule
   18    20     1     0     0
SMALL
NO_CHARGE

@<TRIPOS>ATOM
      1 C4         68.8373   49.9749    8.3660 C.ar      1 MOL     0.0725
      2 C5         69.2112   48.8686    9.1329 C.ar      1 MOL     0.0009
      3 C6         69.9376   49.0550   10.3094 C.ar      1 MOL     0.0187
      4 C7         71.0310   50.5439   11.9091 C.2       1 MOL    -0.0112
      5 C8         70.7034   51.5519   12.7673 C.2       1 MOL     0.0163
      6 C10        72.0456   49.7773   12.3489 C.2       1 MOL     0.0538
      7 N12        68.1214   49.8183    7.2408 N.ar      1 MOL    -0.2334
      8 C13        67.7436   48.5952    6.8118 C.ar      1 MOL     0.1153
      9 C15        68.8423   47.5893    8.7162 C.ar      1 MOL     0.0138
     10 C14        68.0988   47.4506    7.5377 C.ar      1 MOL     0.0445
     11 N16        67.0484   48.4796    5.6805 N.pl3     1 MOL    -0.3432
     12 C3         69.1923   51.2567    8.7838 C.ar      1 MOL     0.0295
     13 C2         69.9257   51.4428    9.9583 C.ar      1 MOL     0.0108
     14 C1         70.3169   50.3427   10.7229 C.ar      1 MOL    -0.0171
     15 C11        71.4124   51.6834   13.8994 C.2       1 MOL     0.0459
     16 S9         72.5267   50.4360   13.8484 S.3       1 MOL    -0.1054
     17 H161       67.2508   49.0867    4.8990 H         1 MOL     0.1442
     18 H162       66.3192   47.7849    5.6045 H         1 MOL     0.1442
@<TRIPOS>BOND
     1    2    1 ar
     2    1    7 ar
     3    1   12 ar
     4    3    2 ar
     5    2    9 ar
     6   14    3 ar
     7    4    5 1 
     8    4    6 2 
     9    4   14 1 
    10    5   15 2 
    11    6   16 1 
    12    7    8 ar
    13    8   10 ar
    14    8   11 1 
    15    9   10 ar
    16   12   13 ar
    17   13   14 ar
    18   15   16 1 
    19   17   11 1 
    20   18   11 1 
@<TRIPOS>SUBSTRUCTURE
1 MOL         1
@<TRIPOS>MOLECULE
query molecule
   18    20     1     0     0
SMALL
NO_CHARGE

@<TRIPOS>ATOM
      1 C4         68.8352   49.9763    8.3545 C.ar      1 MOL     0.0725
      2 C5         69.2023   48.8687    9.1228 C.ar      1 MOL     0.0009
      3 C6         69.9296   49.0522   10.2992 C.ar      1 MOL     0.0187
      4 C7         71.0318   50.5365   11.8972 C.2       1 MOL    -0.0112
      5 C8         70.9018   51.6888   12.6149 C.2       1 MOL     0.0163
      6 C10        71.8562   49.6408   12.4705 C.2       1 MOL     0.0538
      7 N12        68.1185   49.8227    7.2293 N.ar      1 MOL    -0.2334
      8 C13        67.7334   48.6013    6.8018 C.ar      1 MOL     0.1153
      9 C15        68.8256   47.5912    8.7076 C.ar      1 MOL     0.0138
     10 C14        68.0815   47.4555    7.5292 C.ar      1 MOL     0.0445
     11 N16        67.0377   48.4886    5.6705 N.pl3     1 MOL    -0.3432
     12 C3         69.1980   51.2565    8.7707 C.ar      1 MOL     0.0295
     13 C2         69.9323   51.4396    9.9451 C.ar      1 MOL     0.0108
     14 C1         70.3167   50.3381   10.7112 C.ar      1 MOL    -0.0171
     15 C11        71.5987   51.8138   13.7552 C.2       1 MOL     0.0459
     16 S9         72.4315   50.3698   13.9028 S.3       1 MOL    -0.1054
     17 H161       66.0957   48.1248    5.6910 H         1 MOL     0.1442
     18 H162       67.4524   48.7670    4.7927 H         1 MOL     0.1442
@<TRIPOS>BOND
     1    2    1 ar
     2    1    7 ar
     3    1   12 ar
     4    3    2 ar
     5    2    9 ar
     6   14    3 ar
     7    4    5 1 
     8    4    6 2 
     9    4   14 1 
    10    5   15 2 
    11    6   16 1 
    12    7    8 ar
    13    8   10 ar
    14    8   11 1 
    15    9   10 ar
    16   12   13 ar
    17   13   14 ar
    18   15   16 1 
    19   17   11 1 
    20   18   11 1 
@<TRIPOS>SUBSTRUCTURE
1 MOL         1
@<TRIPOS>MOLECULE
query molecule
   18    20     1     0     0
SMALL
NO_CHARGE

@<TRIPOS>ATOM
      1 C4         68.3547   50.2458    8.5300 C.ar      1 MOL     0.0725
      2 C5         68.5671   49.2280    9.4633 C.ar      1 MOL     0.0009
      3 C6         69.2542   49.5048   10.6456 C.ar      1 MOL     0.0187
      4 C7         70.4308   51.0862   12.0900 C.2       1 MOL    -0.0112
      5 C8         70.0143   52.0956   12.9070 C.2       1 MOL     0.0163
      6 C10        71.4912   50.4127   12.5719 C.2       1 MOL     0.0538
      7 N12        67.6789   50.0046    7.3950 N.ar      1 MOL    -0.2334
      8 C13        67.1878   48.7784    7.1156 C.ar      1 MOL     0.1153
      9 C15        68.0779   47.9474    9.2043 C.ar      1 MOL     0.0138
     10 C14        67.3793   47.7190    8.0124 C.ar      1 MOL     0.0445
     11 N16        66.5375   48.5746    5.9701 N.pl3     1 MOL    -0.3432
     12 C3         68.8303   51.5305    8.7889 C.ar      1 MOL     0.0295
     13 C2         69.5244   51.8060    9.9696 C.ar      1 MOL     0.0108
     14 C1         69.7547   50.7922   10.9008 C.ar      1 MOL    -0.0171
     15 C11        70.6914   52.3180   14.0445 C.2       1 MOL     0.0459
     16 S9         71.8956   51.1560   14.0544 S.3       1 MOL    -0.1054
     17 H161       66.0003   47.7295    5.8378 H         1 MOL     0.1442
     18 H162       66.5817   49.2651    5.2344 H         1 MOL     0.1442
@<TRIPOS>BOND
     1    2    1 ar
     2    1    7 ar
     3    1   12 ar
     4    3    2 ar
     5    2    9 ar
     6   14    3 ar
     7    4    5 1 
     8    4    6 2 
     9    4   14 1 
    10    5   15 2 
    11    6   16 1 
    12    7    8 ar
    13    8   10 ar
    14    8   11 1 
    15    9   10 ar
    16   12   13 ar
    17   13   14 ar
    18   15   16 1 
    19   17   11 1 
    20   18   11 1 
@<TRIPOS>SUBSTRUCTURE
1 MOL         1
@<TRIPOS>MOLECULE
query molecule
   18    20     1     0     0
SMALL
NO_CHARGE

@<TRIPOS>ATOM
      1 C4         68.4247   50.3654    8.7923 C.ar      1 MOL     0.0725
      2 C5         68.8848   49.2461    9.4905 C.ar      1 MOL     0.0009
      3 C6         69.6545   49.4161   10.6416 C.ar      1 MOL     0.0187
      4 C7         70.7485   50.8851   12.2592 C.2       1 MOL    -0.0112
      5 C8         70.2720   51.6233   13.3022 C.2       1 MOL     0.0163
      6 C10        71.9572   50.3438   12.4968 C.2       1 MOL     0.0538
      7 N12        67.6664   50.2235    7.6932 N.ar      1 MOL    -0.2334
      8 C13        67.3274   49.0034    7.2251 C.ar      1 MOL     0.1153
      9 C15        68.5577   47.9699    9.0317 C.ar      1 MOL     0.0138
     10 C14        67.7686   47.8468    7.8814 C.ar      1 MOL     0.0445
     11 N16        66.5875   48.9037    6.1209 N.pl3     1 MOL    -0.3432
     12 C3         68.7379   51.6435    9.2529 C.ar      1 MOL     0.0295
     13 C2         69.5145   51.8136   10.4017 C.ar      1 MOL     0.0108
     14 C1         69.9914   50.7015   11.0971 C.ar      1 MOL    -0.0171
     15 C11        71.0359   51.7480   14.3989 C.2       1 MOL     0.0459
     16 S9         72.4093   50.8532   14.0621 S.3       1 MOL    -0.1054
     17 H161       66.0096   48.0888    5.9721 H         1 MOL     0.1442
     18 H162       66.6047   49.6430    5.4330 H         1 MOL     0.1442
@<TRIPOS>BOND
     1    2    1 ar
     2    1    7 ar
     3    1   12 ar
     4    3    2 ar
     5    2    9 ar
     6   14    3 ar
     7    4    5 1 
     8    4    6 2 
     9    4   14 1 
    10    5   15 2 
    11    6   16 1 
    12    7    8 ar
    13    8   10 ar
    14    8   11 1 
    15    9   10 ar
    16   12   13 ar
    17   13   14 ar
    18   15   16 1 
    19   17   11 1 
    20   18   11 1 
@<TRIPOS>SUBSTRUCTURE
1 MOL         1
@<TRIPOS>MOLECULE
query molecule
   18    20     1     0     0
SMALL
NO_CHARGE

@<TRIPOS>ATOM
      1 C4         68.4933   50.4184    8.6764 C.ar      1 MOL     0.0725
      2 C5         68.8364   49.3065    9.4495 C.ar      1 MOL     0.0009
      3 C6         69.5947   49.4760   10.6083 C.ar      1 MOL     0.0187
      4 C7         70.7833   50.9362   12.1660 C.2       1 MOL    -0.0112
      5 C8         70.2947   51.6698   13.2066 C.2       1 MOL     0.0163
      6 C10        71.9927   50.4004   12.4123 C.2       1 MOL     0.0538
      7 N12        67.7479   50.2789    7.5682 N.ar      1 MOL    -0.2334
      8 C13        67.3100   49.0679    7.1627 C.ar      1 MOL     0.1153
      9 C15        68.4052   48.0391    9.0569 C.ar      1 MOL     0.0138
     10 C14        67.6319   47.9180    7.8958 C.ar      1 MOL     0.0445
     11 N16        66.5868   48.9684    6.0475 N.pl3     1 MOL    -0.3432
     12 C3         68.9108   51.6890    9.0703 C.ar      1 MOL     0.0295
     13 C2         69.6760   51.8578   10.2270 C.ar      1 MOL     0.0108
     14 C1         70.0366   50.7513   10.9974 C.ar      1 MOL    -0.0171
     15 C11        71.0490   51.7959   14.3097 C.2       1 MOL     0.0459
     16 S9         72.4296   50.9086   13.9822 S.3       1 MOL    -0.1054
     17 H161       65.7739   49.5538    5.9189 H         1 MOL     0.1442
     18 H162       66.8517   48.3076    5.3311 H         1 MOL     0.1442
@<TRIPOS>BOND
     1    2    1 ar
     2    1    7 ar
     3    1   12 ar
     4    3    2 ar
     5    2    9 ar
     6   14    3 ar
     7    4    5 1 
     8    4    6 2 
     9    4   14 1 
    10    5   15 2 
    11    6   16 1 
    12    7    8 ar
    13    8   10 ar
    14    8   11 1 
    15    9   10 ar
    16   12   13 ar
    17   13   14 ar
    18   15   16 1 
    19   17   11 1 
    20   18   11 1 
@<TRIPOS>SUBSTRUCTURE
1 MOL         1
@<TRIPOS>MOLECULE
query molecule
   18    20     1     0     0
SMALL
NO_CHARGE

@<TRIPOS>ATOM
      1 C4         68.5847   50.1191    8.7792 C.ar      1 MOL     0.0725
      2 C5         69.2300   48.9742    9.2533 C.ar      1 MOL     0.0009
      3 C6         70.0682   49.0619   10.3652 C.ar      1 MOL     0.0187
      4 C7         71.1136   50.3916   12.1289 C.2       1 MOL    -0.0112
      5 C8         70.9060   51.3523   13.0742 C.2       1 MOL     0.0163
      6 C10        72.1309   49.5622   12.4253 C.2       1 MOL     0.0538
      7 N12        67.7589   50.0522    7.7224 N.ar      1 MOL    -0.2334
      8 C13        67.5276   48.8859    7.0829 C.ar      1 MOL     0.1153
      9 C15        69.0179   47.7530    8.6130 C.ar      1 MOL     0.0138
     10 C14        68.1552   47.7086    7.5109 C.ar      1 MOL     0.0445
     11 N16        66.7146   48.8636    6.0269 N.pl3     1 MOL    -0.3432
     12 C3         68.7829   51.3400    9.4224 C.ar      1 MOL     0.0295
     13 C2         69.6277   51.4290   10.5316 C.ar      1 MOL     0.0108
     14 C1         70.2886   50.2938   11.0031 C.ar      1 MOL    -0.0171
     15 C11        71.7183   51.3844   14.1423 C.2       1 MOL     0.0459
     16 S9         72.7711   50.1041   13.9120 S.3       1 MOL    -0.1054
     17 H161       66.0636   48.1009    5.9068 H         1 MOL     0.1442
     18 H162       66.7496   49.6095    5.3468 H         1 MOL     0.1442
@<TRIPOS>BOND
     1    2    1 ar
     2    1    7 ar
     3    1   12 ar
     4    3    2 ar
     5    2    9 ar
     6   14    3 ar
     7    4    5 1 
     8    4    6 2 
     9    4   14 1 
    10    5   15 2 
    11    6   16 1 
    12    7    8 ar
    13    8   10 ar
    14    8   11 1 
    15    9   10 ar
    16   12   13 ar
    17   13   14 ar
    18   15   16 1 
    19   17   11 1 
    20   18   11 1 
@<TRIPOS>SUBSTRUCTURE
1 MOL         1
@<TRIPOS>MOLECULE
query molecule
   18    20     1     0     0
SMALL
NO_CHARGE

@<TRIPOS>ATOM
      1 C4         69.4168   49.6258    8.3037 C.ar      1 MOL     0.0725
      2 C5         68.7266   49.2602    9.4622 C.ar      1 MOL     0.0009
      3 C6         69.2683   49.5558   10.7135 C.ar      1 MOL     0.0187
      4 C7         71.0579   50.5159   12.0726 C.2       1 MOL    -0.0112
      5 C8         72.0672   49.7728   12.6100 C.2       1 MOL     0.0163
      6 C10        70.7045   51.5667   12.8350 C.2       1 MOL     0.0538
      7 N12        68.9034   49.3678    7.0900 N.ar      1 MOL    -0.2334
      8 C13        67.7130   48.7472    6.9471 C.ar      1 MOL     0.1153
      9 C15        67.4960   48.6124    9.3513 C.ar      1 MOL     0.0138
     10 C14        66.9824   48.3509    8.0751 C.ar      1 MOL     0.0445
     11 N16        67.2451   48.4931    5.7251 N.pl3     1 MOL    -0.3432
     12 C3         70.6411   50.2844    8.4080 C.ar      1 MOL     0.0295
     13 C2         71.1868   50.5741    9.6611 C.ar      1 MOL     0.0108
     14 C1         70.5120   50.1993   10.8239 C.ar      1 MOL    -0.0171
     15 C11        72.5638   50.1368   13.8028 C.2       1 MOL     0.0459
     16 S9         71.6977   51.5060   14.2220 S.3       1 MOL    -0.1054
     17 H161       67.5370   47.6591    5.2359 H         1 MOL     0.1442
     18 H162       66.5986   49.1345    5.2885 H         1 MOL     0.1442
@<TRIPOS>BOND
     1    2    1 ar
     2    1    7 ar
     3    1   12 ar
     4    3    2 ar
     5    2    9 ar
     6   14    3 ar
     7    4    5 1 
     8    4    6 2 
     9    4   14 1 
    10    5   15 2 
    11    6   16 1 
    12    7    8 ar
    13    8   10 ar
    14    8   11 1 
    15    9   10 ar
    16   12   13 ar
    17   13   14 ar
    18   15   16 1 
    19   17   11 1 
    20   18   11 1 
@<TRIPOS>SUBSTRUCTURE
1 MOL         1
@<TRIPOS>MOLECULE
query molecule
   18    20     1     0     0
SMALL
NO_CHARGE

@<TRIPOS>ATOM
      1 C4         68.6745   49.8084    8.6871 C.ar      1 MOL     0.0725
      2 C5         69.6596   48.8660    8.9928 C.ar      1 MOL     0.0009
      3 C6         70.4458   49.0311   10.1335 C.ar      1 MOL     0.0187
      4 C7         71.0440   50.3146   12.1250 C.2       1 MOL    -0.0112
      5 C8         72.0293   49.4297   12.4504 C.2       1 MOL     0.0163
      6 C10        70.9446   51.3432   12.9867 C.2       1 MOL     0.0538
      7 N12        67.8944   49.6576    7.6046 N.ar      1 MOL    -0.2334
      8 C13        68.0357   48.6002    6.7772 C.ar      1 MOL     0.1153
      9 C15        69.8367   47.7635    8.1564 C.ar      1 MOL     0.0138
     10 C14        69.0135   47.6295    7.0315 C.ar      1 MOL     0.0445
     11 N16        67.2535   48.4950    5.7031 N.pl3     1 MOL    -0.3432
     12 C3         68.4845   50.9057    9.5258 C.ar      1 MOL     0.0295
     13 C2         69.2765   51.0745   10.6643 C.ar      1 MOL     0.0108
     14 C1         70.2732   50.1466   10.9695 C.ar      1 MOL    -0.0171
     15 C11        72.7487   49.6539   13.5613 C.2       1 MOL     0.0459
     16 S9         72.1305   51.0782   14.1855 S.3       1 MOL    -0.1054
     17 H161       67.4978   48.9794    4.8511 H         1 MOL     0.1442
     18 H162       66.4166   47.9309    5.7411 H         1 MOL     0.1442
@<TRIPOS>BOND
     1    2    1 ar
     2    1    7 ar
     3    1   12 ar
     4    3    2 ar
     5    2    9 ar
     6   14    3 ar
     7    4    5 1 
     8    4    6 2 
     9    4   14 1 
    10    5   15 2 
    11    6   16 1 
    12    7    8 ar
    13    8   10 ar
    14    8   11 1 
    15    9   10 ar
    16   12   13 ar
    17   13   14 ar
    18   15   16 1 
    19   17   11 1 
    20   18   11 1 
@<TRIPOS>SUBSTRUCTURE
1 MOL         1
@<TRIPOS>MOLECULE
query molecule
   18    20     1     0     0
SMALL
NO_CHARGE

@<TRIPOS>ATOM
      1 C4         68.8403   49.1778    8.9852 C.ar      1 MOL     0.0725
      2 C5         69.9014   48.3378    9.3319 C.ar      1 MOL     0.0009
      3 C6         70.7176   48.6641   10.4154 C.ar      1 MOL     0.0187
      4 C7         71.2995   50.1700   12.2498 C.2       1 MOL    -0.0112
      5 C8         72.1542   49.2596   12.7979 C.2       1 MOL     0.0163
      6 C10        71.3569   51.3782   12.8393 C.2       1 MOL     0.0538
      7 N12        68.0314   48.8718    7.9580 N.ar      1 MOL    -0.2334
      8 C13        68.2156   47.7518    7.2269 C.ar      1 MOL     0.1153
      9 C15        70.1241   47.1747    8.5944 C.ar      1 MOL     0.0138
     10 C14        69.2695   46.8782    7.5255 C.ar      1 MOL     0.0445
     11 N16        67.4018   47.4917    6.2039 N.pl3     1 MOL    -0.3432
     12 C3         68.6051   50.3352    9.7261 C.ar      1 MOL     0.0295
     13 C2         69.4267   50.6654   10.8067 C.ar      1 MOL     0.0108
     14 C1         70.4984   49.8404   11.1512 C.ar      1 MOL    -0.0171
     15 C11        72.9119   49.6398   13.8386 C.2       1 MOL     0.0459
     16 S9         72.5086   51.2440   14.0921 S.3       1 MOL    -0.1054
     17 H161       66.6765   46.7953    6.3000 H         1 MOL     0.1442
     18 H162       67.5103   47.9908    5.3326 H         1 MOL     0.1442
@<TRIPOS>BOND
     1    2    1 ar
     2    1    7 ar
     3    1   12 ar
     4    3    2 ar
     5    2    9 ar
     6   14    3 ar
     7    4    5 1 
     8    4    6 2 
     9    4   14 1 
    10    5   15 2 
    11    6   16 1 
    12    7    8 ar
    13    8   10 ar
    14    8   11 1 
    15    9   10 ar
    16   12   13 ar
    17   13   14 ar
    18   15   16 1 
    19   17   11 1 
    20   18   11 1 
@<TRIPOS>SUBSTRUCTURE
1 MOL         1
@<TRIPOS>MOLECULE
query molecule
   18    20     1     0     0
SMALL
NO_CHARGE

@<TRIPOS>ATOM
      1 C4         68.8112   49.1777    9.0395 C.ar      1 MOL     0.0725
      2 C5         69.8552   48.3448    9.4496 C.ar      1 MOL     0.0009
      3 C6         70.6561   48.7185   10.5292 C.ar      1 MOL     0.0187
      4 C7         71.2243   50.3126   12.2920 C.2       1 MOL    -0.0112
      5 C8         70.7817   51.2361   13.1925 C.2       1 MOL     0.0163
      6 C10        72.4305   49.8021   12.6002 C.2       1 MOL     0.0538
      7 N12        68.0169   48.8271    8.0151 N.ar      1 MOL    -0.2334
      8 C13        68.1999   47.6679    7.3477 C.ar      1 MOL     0.1153
      9 C15        70.0762   47.1417    8.7788 C.ar      1 MOL     0.0138
     10 C14        69.2371   46.7990    7.7114 C.ar      1 MOL     0.0445
     11 N16        67.4011   47.3634    6.3250 N.pl3     1 MOL    -0.3432
     12 C3         68.5775   50.3754    9.7138 C.ar      1 MOL     0.0295
     13 C2         69.3839   50.7528   10.7905 C.ar      1 MOL     0.0108
     14 C1         70.4387   49.9346   11.1977 C.ar      1 MOL    -0.0171
     15 C11        71.5717   51.5441   14.2331 C.2       1 MOL     0.0459
     16 S9         72.9247   50.5789   14.0376 S.3       1 MOL    -0.1054
     17 H161       67.1257   46.4045    6.1674 H         1 MOL     0.1442
     18 H162       67.0712   48.0915    5.7077 H         1 MOL     0.1442
@<TRIPOS>BOND
     1    2    1 ar
     2    1    7 ar
     3    1   12 ar
     4    3    2 ar
     5    2    9 ar
     6   14    3 ar
     7    4    5 1 
     8    4    6 2 
     9    4   14 1 
    10    5   15 2 
    11    6   16 1 
    12    7    8 ar
    13    8   10 ar
    14    8   11 1 
    15    9   10 ar
    16   12   13 ar
    17   13   14 ar
    18   15   16 1 
    19   17   11 1 
    20   18   11 1 
@<TRIPOS>SUBSTRUCTURE
1 MOL         1
@<TRIPOS>MOLECULE
query molecule
   18    20     1     0     0
SMALL
NO_CHARGE

@<TRIPOS>ATOM
      1 C4         71.3316   50.3674   11.9176 C.ar      1 MOL     0.0725
      2 C5         70.9567   51.3093   12.8790 C.ar      1 MOL     0.0009
      3 C6         70.1148   52.3636   12.5241 C.ar      1 MOL     0.0187
      4 C7         68.7968   53.5458   10.8399 C.2       1 MOL    -0.0112
      5 C8         69.0085   54.2688    9.7031 C.2       1 MOL     0.0163
      6 C10        67.6876   53.9133   11.5072 C.2       1 MOL     0.0538
      7 N12        72.1255   49.3345   12.2433 N.ar      1 MOL    -0.2334
      8 C13        72.5892   49.1728   13.5009 C.ar      1 MOL     0.1153
      9 C15        71.4221   51.1758   14.1874 C.ar      1 MOL     0.0138
     10 C14        72.2515   50.0925   14.5025 C.ar      1 MOL     0.0445
     11 N16        73.3892   48.1440   13.7809 N.pl3     1 MOL    -0.3432
     12 C3         70.8598   50.4884   10.6113 C.ar      1 MOL     0.0295
     13 C2         70.0223   51.5481   10.2544 C.ar      1 MOL     0.0108
     14 C1         69.6547   52.5025   11.2042 C.ar      1 MOL    -0.0171
     15 C11        68.1403   55.2451    9.3953 C.2       1 MOL     0.0459
     16 S9         67.0007   55.1997   10.6200 S.3       1 MOL    -0.1054
     17 H161       74.3372   48.1322   13.4327 H         1 MOL     0.1442
     18 H162       73.0474   47.3764   14.3411 H         1 MOL     0.1442
@<TRIPOS>BOND
     1    2    1 ar
     2    1    7 ar
     3    1   12 ar
     4    3    2 ar
     5    2    9 ar
     6   14    3 ar
     7    4    5 1 
     8    4    6 2 
     9    4   14 1 
    10    5   15 2 
    11    6   16 1 
    12    7    8 ar
    13    8   10 ar
    14    8   11 1 
    15    9   10 ar
    16   12   13 ar
    17   13   14 ar
    18   15   16 1 
    19   17   11 1 
    20   18   11 1 
@<TRIPOS>SUBSTRUCTURE
1 MOL         1
@<TRIPOS>MOLECULE
query molecule
   18    20     1     0     0
SMALL
NO_CHARGE

@<TRIPOS>ATOM
      1 C4         66.8944   51.2248   11.5931 C.ar      1 MOL     0.0725
      2 C5         67.7898   50.4885   10.8134 C.ar      1 MOL     0.0009
      3 C6         69.1093   50.3296   11.2378 C.ar      1 MOL     0.0187
      4 C7         70.8720   50.7538   12.8762 C.2       1 MOL    -0.0112
      5 C8         71.6545   49.7426   12.4019 C.2       1 MOL     0.0163
      6 C10        71.5095   51.5590   13.7455 C.2       1 MOL     0.0538
      7 N12        65.6153   51.3732   11.2120 N.ar      1 MOL    -0.2334
      8 C13        65.1536   50.8234   10.0686 C.ar      1 MOL     0.1153
      9 C15        67.3477   49.9110    9.6229 C.ar      1 MOL     0.0138
     10 C14        66.0104   50.0821    9.2444 C.ar      1 MOL     0.0445
     11 N16        63.8815   51.0078    9.7159 N.pl3     1 MOL    -0.3432
     12 C3         67.3270   51.7940   12.7900 C.ar      1 MOL     0.0295
     13 C2         68.6502   51.6407   13.2114 C.ar      1 MOL     0.0108
     14 C1         69.5558   50.9197   12.4317 C.ar      1 MOL    -0.0171
     15 C11        72.9156   49.6456   12.8510 C.2       1 MOL     0.0459
     16 S9         73.0882   50.9305   13.9092 S.3       1 MOL    -0.1054
     17 H161       63.3634   51.7918   10.0860 H         1 MOL     0.1442
     18 H162       63.4357   50.3636    9.0784 H         1 MOL     0.1442
@<TRIPOS>BOND
     1    2    1 ar
     2    1    7 ar
     3    1   12 ar
     4    3    2 ar
     5    2    9 ar
     6   14    3 ar
     7    4    5 1 
     8    4    6 2 
     9    4   14 1 
    10    5   15 2 
    11    6   16 1 
    12    7    8 ar
    13    8   10 ar
    14    8   11 1 
    15    9   10 ar
    16   12   13 ar
    17   13   14 ar
    18   15   16 1 
    19   17   11 1 
    20   18   11 1 
@<TRIPOS>SUBSTRUCTURE
1 MOL         1
@<TRIPOS>MOLECULE
query molecule
   18    20     1     0     0
SMALL
NO_CHARGE

@<TRIPOS>ATOM
      1 C4         72.0748   49.4229    8.4211 C.ar      1 MOL     0.0725
      2 C5         70.9505   50.1768    8.7668 C.ar      1 MOL     0.0009
      3 C6         70.7650   50.5767   10.0906 C.ar      1 MOL     0.0187
      4 C7         71.5196   50.6211   12.4144 C.2       1 MOL    -0.0112
      5 C8         72.4671   50.3547   13.3583 C.2       1 MOL     0.0163
      6 C10        70.4802   51.3326   12.8875 C.2       1 MOL     0.0538
      7 N12        72.2817   49.0446    7.1494 N.ar      1 MOL    -0.2334
      8 C13        71.4151   49.3736    6.1677 C.ar      1 MOL     0.1153
      9 C15        70.0316   50.5299    7.7783 C.ar      1 MOL     0.0138
     10 C14        70.2667   50.1212    6.4598 C.ar      1 MOL     0.0445
     11 N16        71.6465   48.9645    4.9205 N.pl3     1 MOL    -0.3432
     12 C3         73.0031   49.0774    9.4023 C.ar      1 MOL     0.0295
     13 C2         72.8137   49.4720   10.7290 C.ar      1 MOL     0.0108
     14 C1         71.6859   50.2122   11.0867 C.ar      1 MOL    -0.0171
     15 C11        72.2609   50.7892   14.6115 C.2       1 MOL     0.0459
     16 S9         70.7928   51.5897   14.5458 S.3       1 MOL    -0.1054
     17 H161       71.5537   47.9869    4.6842 H         1 MOL     0.1442
     18 H162       71.9147   49.6320    4.2116 H         1 MOL     0.1442
@<TRIPOS>BOND
     1    2    1 ar
     2    1    7 ar
     3    1   12 ar
     4    3    2 ar
     5    2    9 ar
     6   14    3 ar
     7    4    5 1 
     8    4    6 2 
     9    4   14 1 
    10    5   15 2 
    11    6   16 1 
    12    7    8 ar
    13    8   10 ar
    14    8   11 1 
    15    9   10 ar
    16   12   13 ar
    17   13   14 ar
    18   15   16 1 
    19   17   11 1 
    20   18   11 1 
@<TRIPOS>SUBSTRUCTURE
1 MOL         1
@<TRIPOS>MOLECULE
query molecule
   18    20     1     0     0
SMALL
NO_CHARGE

@<TRIPOS>ATOM
      1 C4         71.5174   50.0869   12.7679 C.ar      1 MOL     0.0725
      2 C5         71.1896   50.0910   11.4098 C.ar      1 MOL     0.0009
      3 C6         70.3157   51.0576   10.9112 C.ar      1 MOL     0.0187
      4 C7         68.8789   53.0009   11.2725 C.2       1 MOL    -0.0112
      5 C8         69.0145   53.4915   10.0073 C.2       1 MOL     0.0163
      6 C10        67.8321   53.5226   11.9378 C.2       1 MOL     0.0538
      7 N12        72.3715   49.1772   13.2639 N.ar      1 MOL    -0.2334
      8 C13        72.9365   48.2388   12.4746 C.ar      1 MOL     0.1153
      9 C15        71.7511   49.1322   10.5662 C.ar      1 MOL     0.0138
     10 C14        72.6364   48.1916   11.1068 C.ar      1 MOL     0.0445
     11 N16        73.7661   47.3421   13.0078 N.pl3     1 MOL    -0.3432
     12 C3         70.9692   51.0502   13.6137 C.ar      1 MOL     0.0295
     13 C2         70.0887   52.0138   13.1156 C.ar      1 MOL     0.0108
     14 C1         69.7434   52.0165   11.7633 C.ar      1 MOL    -0.0171
     15 C11        68.1429   54.4210    9.5852 C.2       1 MOL     0.0459
     16 S9         67.1017   54.6424   10.8764 S.3       1 MOL    -0.1054
     17 H161       74.0848   46.5583   12.4562 H         1 MOL     0.1442
     18 H162       74.0762   47.4464   13.9633 H         1 MOL     0.1442
@<TRIPOS>BOND
     1    2    1 ar
     2    1    7 ar
     3    1   12 ar
     4    3    2 ar
     5    2    9 ar
     6   14    3 ar
     7    4    5 1 
     8    4    6 2 
     9    4   14 1 
    10    5   15 2 
    11    6   16 1 
    12    7    8 ar
    13    8   10 ar
    14    8   11 1 
    15    9   10 ar
    16   12   13 ar
    17   13   14 ar
    18   15   16 1 
    19   17   11 1 
    20   18   11 1 
@<TRIPOS>SUBSTRUCTURE
1 MOL         1
@<TRIPOS>MOLECULE
query molecule
   18    20     1     0     0
SMALL
NO_CHARGE

@<TRIPOS>ATOM
      1 C4         67.7562   53.1819   11.8328 C.ar      1 MOL     0.0725
      2 C5         68.9107   53.3190   11.0581 C.ar      1 MOL     0.0009
      3 C6         70.0186   52.5115   11.3172 C.ar      1 MOL     0.0187
      4 C7         71.0938   50.7474   12.6222 C.2       1 MOL    -0.0112
      5 C8         71.4779   49.7862   11.7343 C.2       1 MOL     0.0163
      6 C10        71.8935   50.8272   13.7014 C.2       1 MOL     0.0538
      7 N12        66.6726   53.9359   11.5872 N.ar      1 MOL    -0.2334
      8 C13        66.6616   54.8492   10.5929 C.ar      1 MOL     0.1153
      9 C15        68.9360   54.2569   10.0257 C.ar      1 MOL     0.0138
     10 C14        67.7952   55.0342    9.7905 C.ar      1 MOL     0.0445
     11 N16        65.5725   55.5907   10.3916 N.pl3     1 MOL    -0.3432
     12 C3         67.7205   52.2377   12.8580 C.ar      1 MOL     0.0295
     13 C2         68.8323   51.4340   13.1218 C.ar      1 MOL     0.0108
     14 C1         69.9954   51.5743   12.3632 C.ar      1 MOL    -0.0171
     15 C11        72.5516   49.0363   12.0286 C.2       1 MOL     0.0459
     16 S9         73.0867   49.6229   13.5017 S.3       1 MOL    -0.1054
     17 H161       65.2594   56.2325   11.1059 H         1 MOL     0.1442
     18 H162       65.0603   55.5110    9.5247 H         1 MOL     0.1442
@<TRIPOS>BOND
     1    2    1 ar
     2    1    7 ar
     3    1   12 ar
     4    3    2 ar
     5    2    9 ar
     6   14    3 ar
     7    4    5 1 
     8    4    6 2 
     9    4   14 1 
    10    5   15 2 
    11    6   16 1 
    12    7    8 ar
    13    8   10 ar
    14    8   11 1 
    15    9   10 ar
    16   12   13 ar
    17   13   14 ar
    18   15   16 1 
    19   17   11 1 
    20   18   11 1 
@<TRIPOS>SUBSTRUCTURE
1 MOL         1
@<TRIPOS>MOLECULE
query molecule
   18    20     1     0     0
SMALL
NO_CHARGE

@<TRIPOS>ATOM
      1 C4         71.4053   50.2920   11.6097 C.ar      1 MOL     0.0725
      2 C5         71.1303   51.2281   12.6097 C.ar      1 MOL     0.0009
      3 C6         70.3417   52.3414   12.3183 C.ar      1 MOL     0.0187
      4 C7         69.0309   53.6484   10.7229 C.2       1 MOL    -0.0112
      5 C8         68.0668   54.0743   11.5883 C.2       1 MOL     0.0163
      6 C10        69.1355   54.4142    9.6216 C.2       1 MOL     0.0538
      7 N12        72.1461   49.2038   11.8746 N.ar      1 MOL    -0.2334
      8 C13        72.6509   48.9792   13.1065 C.ar      1 MOL     0.1153
      9 C15        71.6406   51.0301   13.8929 C.ar      1 MOL     0.0138
     10 C14        72.4133   49.8897   14.1446 C.ar      1 MOL     0.0445
     11 N16        73.3961   47.8960   13.3256 N.pl3     1 MOL    -0.3432
     12 C3         70.8879   50.4779   10.3285 C.ar      1 MOL     0.0295
     13 C2         70.1039   51.5964   10.0350 C.ar      1 MOL     0.0108
     14 C1         69.8365   52.5447   11.0234 C.ar      1 MOL    -0.0171
     15 C11        67.3381   55.1509   11.2541 C.2       1 MOL     0.0459
     16 S9         67.9493   55.6324    9.7725 S.3       1 MOL    -0.1054
     17 H161       74.1644   47.6780   12.7072 H         1 MOL     0.1442
     18 H162       73.1927   47.2933   14.1100 H         1 MOL     0.1442
@<TRIPOS>BOND
     1    2    1 ar
     2    1    7 ar
     3    1   12 ar
     4    3    2 ar
     5    2    9 ar
     6   14    3 ar
     7    4    5 1 
     8    4    6 2 
     9    4   14 1 
    10    5   15 2 
    11    6   16 1 
    12    7    8 ar
    13    8   10 ar
    14    8   11 1 
    15    9   10 ar
    16   12   13 ar
    17   13   14 ar
    18   15   16 1 
    19   17   11 1 
    20   18   11 1 
@<TRIPOS>SUBSTRUCTURE
1 MOL         1
@<TRIPOS>MOLECULE
query molecule
   18    20     1     0     0
SMALL
NO_CHARGE

@<TRIPOS>ATOM
      1 C4         67.4633   53.3359   11.6053 C.ar      1 MOL     0.0725
      2 C5         68.6526   53.5226   10.8962 C.ar      1 MOL     0.0009
      3 C6         69.7287   52.6606   11.1094 C.ar      1 MOL     0.0187
      4 C7         70.7050   50.7364   12.2565 C.2       1 MOL    -0.0112
      5 C8         71.6025   50.9432   13.2622 C.2       1 MOL     0.0163
      6 C10        70.9357   49.6093   11.5587 C.2       1 MOL     0.0538
      7 N12        66.4095   54.1426   11.4004 N.ar      1 MOL    -0.2334
      8 C13        66.4626   55.1574   10.5116 C.ar      1 MOL     0.1153
      9 C15        68.7440   54.5650    9.9735 C.ar      1 MOL     0.0138
     10 C14        67.6333   55.3953    9.7794 C.ar      1 MOL     0.0445
     11 N16        65.4012   55.9471   10.3492 N.pl3     1 MOL    -0.3432
     12 C3         67.3616   52.2884   12.5196 C.ar      1 MOL     0.0295
     13 C2         68.4416   51.4296   12.7382 C.ar      1 MOL     0.0108
     14 C1         69.6387   51.6174   12.0458 C.ar      1 MOL    -0.0171
     15 C11        72.5934   50.0530   13.4278 C.2       1 MOL     0.0459
     16 S9         72.3282   48.8995   12.2448 S.3       1 MOL    -0.1054
     17 H161       64.9738   56.0378    9.4386 H         1 MOL     0.1442
     18 H162       65.0242   56.4548   11.1367 H         1 MOL     0.1442
@<TRIPOS>BOND
     1    2    1 ar
     2    1    7 ar
     3    1   12 ar
     4    3    2 ar
     5    2    9 ar
     6   14    3 ar
     7    4    5 1 
     8    4    6 2 
     9    4   14 1 
    10    5   15 2 
    11    6   16 1 
    12    7    8 ar
    13    8   10 ar
    14    8   11 1 
    15    9   10 ar
    16   12   13 ar
    17   13   14 ar
    18   15   16 1 
    19   17   11 1 
    20   18   11 1 
@<TRIPOS>SUBSTRUCTURE
1 MOL         1
@<TRIPOS>MOLECULE
query molecule
   18    20     1     0     0
SMALL
NO_CHARGE

@<TRIPOS>ATOM
      1 C4         71.6093   50.2395   12.1223 C.ar      1 MOL     0.0725
      2 C5         71.1667   50.2644   10.7974 C.ar      1 MOL     0.0009
      3 C6         70.2956   51.2698   10.3770 C.ar      1 MOL     0.0187
      4 C7         68.9798   53.2709   10.8628 C.2       1 MOL    -0.0112
      5 C8         67.9131   53.6465   11.6249 C.2       1 MOL     0.0163
      6 C10        69.1202   54.0038    9.7431 C.2       1 MOL     0.0538
      7 N12        72.4630   49.2917   12.5420 N.ar      1 MOL    -0.2334
      8 C13        72.9174   48.3340   11.7058 C.ar      1 MOL     0.1153
      9 C15        71.6120   49.2866    9.9075 C.ar      1 MOL     0.0138
     10 C14        72.4993   48.3064   10.3689 C.ar      1 MOL     0.0445
     11 N16        73.7504   47.4001   12.1646 N.pl3     1 MOL    -0.3432
     12 C3         71.1775   51.2211   13.0133 C.ar      1 MOL     0.0295
     13 C2         70.2998   52.2239   12.5939 C.ar      1 MOL     0.0108
     14 C1         69.8402   52.2480   11.2763 C.ar      1 MOL    -0.0171
     15 C11        67.1343   54.6476   11.1854 C.2       1 MOL     0.0459
     16 S9         67.8334   55.1253    9.7420 S.3       1 MOL    -0.1054
     17 H161       73.4116   46.6862   12.7937 H         1 MOL     0.1442
     18 H162       74.7203   47.4062   11.8832 H         1 MOL     0.1442
@<TRIPOS>BOND
     1    2    1 ar
     2    1    7 ar
     3    1   12 ar
     4    3    2 ar
     5    2    9 ar
     6   14    3 ar
     7    4    5 1 
     8    4    6 2 
     9    4   14 1 
    10    5   15 2 
    11    6   16 1 
    12    7    8 ar
    13    8   10 ar
    14    8   11 1 
    15    9   10 ar
    16   12   13 ar
    17   13   14 ar
    18   15   16 1 
    19   17   11 1 
    20   18   11 1 
@<TRIPOS>SUBSTRUCTURE
1 MOL         1
@<TRIPOS>MOLECULE
query molecule
   18    20     1     0     0
SMALL
NO_CHARGE

@<TRIPOS>ATOM
      1 C4         71.3817   47.7941    9.3229 C.ar      1 MOL     0.0725
      2 C5         70.1636   48.2757    9.8089 C.ar      1 MOL     0.0009
      3 C6         70.1500   49.1703   10.8794 C.ar      1 MOL     0.0187
      4 C7         71.3481   50.4871   12.5534 C.2       1 MOL    -0.0112
      5 C8         72.2210   50.3563   13.5929 C.2       1 MOL     0.0163
      6 C10        70.5602   51.5734   12.6517 C.2       1 MOL     0.0538
      7 N12        71.4173   46.9476    8.2811 N.ar      1 MOL    -0.2334
      8 C13        70.2857   46.5320    7.6732 C.ar      1 MOL     0.1153
      9 C15        68.9743   47.8627    9.2078 C.ar      1 MOL     0.0138
     10 C14        69.0363   46.9769    8.1250 C.ar      1 MOL     0.0445
     11 N16        70.3616   45.6776    6.6530 N.pl3     1 MOL    -0.3432
     12 C3         72.5742   48.2127    9.9114 C.ar      1 MOL     0.0295
     13 C2         72.5602   49.1031   10.9879 C.ar      1 MOL     0.0108
     14 C1         71.3476   49.5778   11.4901 C.ar      1 MOL    -0.0171
     15 C11        72.1874   51.2707   14.5750 C.2       1 MOL     0.0459
     16 S9         70.9918   52.3460   14.1113 S.3       1 MOL    -0.1054
     17 H161       70.9645   45.8802    5.8684 H         1 MOL     0.1442
     18 H162       69.8162   44.8276    6.6644 H         1 MOL     0.1442
@<TRIPOS>BOND
     1    2    1 ar
     2    1    7 ar
     3    1   12 ar
     4    3    2 ar
     5    2    9 ar
     6   14    3 ar
     7    4    5 1 
     8    4    6 2 
     9    4   14 1 
    10    5   15 2 
    11    6   16 1 
    12    7    8 ar
    13    8   10 ar
    14    8   11 1 
    15    9   10 ar
    16   12   13 ar
    17   13   14 ar
    18   15   16 1 
    19   17   11 1 
    20   18   11 1 
@<TRIPOS>SUBSTRUCTURE
1 MOL         1
@<TRIPOS>MOLECULE
query molecule
   18    20     1     0     0
SMALL
NO_CHARGE

@<TRIPOS>ATOM
      1 C4         70.6236   49.9572    8.5139 C.ar      1 MOL     0.0725
      2 C5         71.9770   49.7001    8.7465 C.ar      1 MOL     0.0009
      3 C6         72.4569   49.6469   10.0555 C.ar      1 MOL     0.0187
      4 C7         72.0643   49.8026   12.4624 C.2       1 MOL    -0.0112
      5 C8         71.8911   50.8440   13.3256 C.2       1 MOL     0.0163
      6 C10        72.6666   48.7385   13.0239 C.2       1 MOL     0.0538
      7 N12        70.1382   49.9933    7.2624 N.ar      1 MOL    -0.2334
      8 C13        70.9354   49.7880    6.1924 C.ar      1 MOL     0.1153
      9 C15        72.8305   49.4885    7.6635 C.ar      1 MOL     0.0138
     10 C14        72.3022   49.5345    6.3675 C.ar      1 MOL     0.0445
     11 N16        70.4192   49.8491    4.9650 N.pl3     1 MOL    -0.3432
     12 C3         69.7632   50.1571    9.5926 C.ar      1 MOL     0.0295
     13 C2         70.2452   50.1107   10.9031 C.ar      1 MOL     0.0108
     14 C1         71.5985   49.8698   11.1448 C.ar      1 MOL    -0.0171
     15 C11        72.3421   50.7139   14.5831 C.2       1 MOL     0.0459
     16 S9         72.9925   49.1731   14.6422 S.3       1 MOL    -0.1054
     17 H161       69.9924   49.0306    4.5552 H         1 MOL     0.1442
     18 H162       70.4549   50.7141    4.4447 H         1 MOL     0.1442
@<TRIPOS>BOND
     1    2    1 ar
     2    1    7 ar
     3    1   12 ar
     4    3    2 ar
     5    2    9 ar
     6   14    3 ar
     7    4    5 1 
     8    4    6 2 
     9    4   14 1 
    10    5   15 2 
    11    6   16 1 
    12    7    8 ar
    13    8   10 ar
    14    8   11 1 
    15    9   10 ar
    16   12   13 ar
    17   13   14 ar
    18   15   16 1 
    19   17   11 1 
    20   18   11 1 
@<TRIPOS>SUBSTRUCTURE
1 MOL         1
@<TRIPOS>MOLECULE
query molecule
   18    20     1     0     0
SMALL
NO_CHARGE

@<TRIPOS>ATOM
      1 C4         71.9240   49.8589   11.9814 C.ar      1 MOL     0.0725
      2 C5         71.4119   49.9584   10.6854 C.ar      1 MOL     0.0009
      3 C6         70.4936   50.9631   10.3788 C.ar      1 MOL     0.0187
      4 C7         69.1526   52.8870   11.0654 C.2       1 MOL    -0.0112
      5 C8         69.3401   53.7047    9.9903 C.2       1 MOL     0.0163
      6 C10        68.0168   53.1439   11.7396 C.2       1 MOL     0.0538
      7 N12        72.8234   48.9113   12.2920 N.ar      1 MOL    -0.2334
      8 C13        73.2585   48.0253   11.3708 C.ar      1 MOL     0.1153
      9 C15        71.8358   49.0559    9.7097 C.ar      1 MOL     0.0138
     10 C14        72.7717   48.0742   10.0579 C.ar      1 MOL     0.0445
     11 N16        74.1389   47.0884   11.7223 N.pl3     1 MOL    -0.3432
     12 C3         71.5138   50.7656   12.9577 C.ar      1 MOL     0.0295
     13 C2         70.5889   51.7673   12.6524 C.ar      1 MOL     0.0108
     14 C1         70.0603   51.8652   11.3645 C.ar      1 MOL    -0.0171
     15 C11        68.4250   54.6549    9.7424 C.2       1 MOL     0.0459
     16 S9         67.2737   54.4566   10.9405 S.3       1 MOL    -0.1054
     17 H161       74.4387   46.3987   11.0480 H         1 MOL     0.1442
     18 H162       74.5063   47.0680   12.6628 H         1 MOL     0.1442
@<TRIPOS>BOND
     1    2    1 ar
     2    1    7 ar
     3    1   12 ar
     4    3    2 ar
     5    2    9 ar
     6   14    3 ar
     7    4    5 1 
     8    4    6 2 
     9    4   14 1 
    10    5   15 2 
    11    6   16 1 
    12    7    8 ar
    13    8   10 ar
    14    8   11 1 
    15    9   10 ar
    16   12   13 ar
    17   13   14 ar
    18   15   16 1 
    19   17   11 1 
    20   18   11 1 
@<TRIPOS>SUBSTRUCTURE
1 MOL         1
@<TRIPOS>MOLECULE
query molecule
   18    20     1     0     0
SMALL
NO_CHARGE

@<TRIPOS>ATOM
      1 C4         72.2600   47.8136    9.1234 C.ar      1 MOL     0.0725
      2 C5         73.3613   48.3752    9.7742 C.ar      1 MOL     0.0009
      3 C6         73.1655   49.1856   10.8930 C.ar      1 MOL     0.0187
      4 C7         71.6622   50.2592   12.4926 C.2       1 MOL    -0.0112
      5 C8         72.4179   50.1006   13.6166 C.2       1 MOL     0.0163
      6 C10        70.7688   51.2609   12.5871 C.2       1 MOL     0.0538
      7 N12        72.4281   47.0153    8.0568 N.ar      1 MOL    -0.2334
      8 C13        73.6578   46.7322    7.5767 C.ar      1 MOL     0.1153
      9 C15        74.6464   48.1080    9.3016 C.ar      1 MOL     0.0138
     10 C14        74.7967   47.2755    8.1858 C.ar      1 MOL     0.0445
     11 N16        73.7825   45.9494    6.5052 N.pl3     1 MOL    -0.3432
     12 C3         70.9739   48.0669    9.5984 C.ar      1 MOL     0.0295
     13 C2         70.7776   48.8840   10.7145 C.ar      1 MOL     0.0108
     14 C1         71.8706   49.4618   11.3620 C.ar      1 MOL    -0.0171
     15 C11        72.1847   50.9083   14.6630 C.2       1 MOL     0.0459
     16 S9         70.9540   51.9201   14.1508 S.3       1 MOL    -0.1054
     17 H161       74.4010   45.1513    6.5320 H         1 MOL     0.1442
     18 H162       73.2585   46.1542    5.6664 H         1 MOL     0.1442
@<TRIPOS>BOND
     1    2    1 ar
     2    1    7 ar
     3    1   12 ar
     4    3    2 ar
     5    2    9 ar
     6   14    3 ar
     7    4    5 1 
     8    4    6 2 
     9    4   14 1 
    10    5   15 2 
    11    6   16 1 
    12    7    8 ar
    13    8   10 ar
    14    8   11 1 
    15    9   10 ar
    16   12   13 ar
    17   13   14 ar
    18   15   16 1 
    19   17   11 1 
    20   18   11 1 
@<TRIPOS>SUBSTRUCTURE
1 MOL         1
@<TRIPOS>MOLECULE
query molecule
   18    20     1     0     0
SMALL
NO_CHARGE

@<TRIPOS>ATOM
      1 C4         68.7558   48.9483    6.8014 C.ar      1 MOL     0.0725
      2 C5         69.2314   48.2172    7.8928 C.ar      1 MOL     0.0009
      3 C6         70.5985   48.1973    8.1704 C.ar      1 MOL     0.0187
      4 C7         72.8790   48.8892    7.6296 C.2       1 MOL    -0.0112
      5 C8         73.5999   50.0467    7.6176 C.2       1 MOL     0.0163
      6 C10        73.6070   47.8106    7.9719 C.2       1 MOL     0.0538
      7 N12        67.4418   48.9960    6.5287 N.ar      1 MOL    -0.2334
      8 C13        66.5408   48.3410    7.2914 C.ar      1 MOL     0.1153
      9 C15        68.3285   47.5238    8.6992 C.ar      1 MOL     0.0138
     10 C14        66.9634   47.5856    8.3932 C.ar      1 MOL     0.0445
     11 N16        65.2466   48.3986    6.9780 N.pl3     1 MOL    -0.3432
     12 C3         69.6519   49.6534    5.9992 C.ar      1 MOL     0.0295
     13 C2         71.0216   49.6278    6.2731 C.ar      1 MOL     0.0108
     14 C1         71.5077   48.8879    7.3520 C.ar      1 MOL    -0.0171
     15 C11        74.9084   49.9880    7.9111 C.2       1 MOL     0.0459
     16 S9         75.1977   48.3717    8.2341 S.3       1 MOL    -0.1054
     17 H161       64.7412   49.2676    7.0769 H         1 MOL     0.1442
     18 H162       64.7711   47.5735    6.6416 H         1 MOL     0.1442
@<TRIPOS>BOND
     1    2    1 ar
     2    1    7 ar
     3    1   12 ar
     4    3    2 ar
     5    2    9 ar
     6   14    3 ar
     7    4    5 1 
     8    4    6 2 
     9    4   14 1 
    10    5   15 2 
    11    6   16 1 
    12    7    8 ar
    13    8   10 ar
    14    8   11 1 
    15    9   10 ar
    16   12   13 ar
    17   13   14 ar
    18   15   16 1 
    19   17   11 1 
    20   18   11 1 
@<TRIPOS>SUBSTRUCTURE
1 MOL         1
@<TRIPOS>MOLECULE
query molecule
   18    20     1     0     0
SMALL
NO_CHARGE

@<TRIPOS>ATOM
      1 C4         71.6000   49.8712   11.4789 C.ar      1 MOL     0.0725
      2 C5         71.2738   50.7006   12.5549 C.ar      1 MOL     0.0009
      3 C6         70.4337   51.7963   12.3549 C.ar      1 MOL     0.0187
      4 C7         69.0706   53.1755   10.8678 C.2       1 MOL    -0.0112
      5 C8         69.0882   53.8711    9.6950 C.2       1 MOL     0.0163
      6 C10        68.1392   53.6139   11.7344 C.2       1 MOL     0.0538
      7 N12        72.3913   48.8005   11.6542 N.ar      1 MOL    -0.2334
      8 C13        72.8989   48.4919   12.8666 C.ar      1 MOL     0.1153
      9 C15        71.7853   50.4141   13.8208 C.ar      1 MOL     0.0138
     10 C14        72.6110   49.2942   13.9786 C.ar      1 MOL     0.0445
     11 N16        73.6946   47.4305   12.9968 N.pl3     1 MOL    -0.3432
     12 C3         71.0819   50.1452   10.2139 C.ar      1 MOL     0.0295
     13 C2         70.2463   51.2465   10.0123 C.ar      1 MOL     0.0108
     14 C1         69.9271   52.0894   11.0779 C.ar      1 MOL    -0.0171
     15 C11        68.2294   54.8916    9.5439 C.2       1 MOL     0.0459
     16 S9         67.3580   54.9265   10.9722 S.3       1 MOL    -0.1054
     17 H161       73.5046   46.5894   12.4708 H         1 MOL     0.1442
     18 H162       74.4875   47.4673   13.6213 H         1 MOL     0.1442
@<TRIPOS>BOND
     1    2    1 ar
     2    1    7 ar
     3    1   12 ar
     4    3    2 ar
     5    2    9 ar
     6   14    3 ar
     7    4    5 1 
     8    4    6 2 
     9    4   14 1 
    10    5   15 2 
    11    6   16 1 
    12    7    8 ar
    13    8   10 ar
    14    8   11 1 
    15    9   10 ar
    16   12   13 ar
    17   13   14 ar
    18   15   16 1 
    19   17   11 1 
    20   18   11 1 
@<TRIPOS>SUBSTRUCTURE
1 MOL         1
@<TRIPOS>MOLECULE
query molecule
   18    20     1     0     0
SMALL
NO_CHARGE

@<TRIPOS>ATOM
      1 C4         71.8497   49.1964    8.0866 C.ar      1 MOL     0.0725
      2 C5         73.0953   49.0922    8.7108 C.ar      1 MOL     0.0009
      3 C6         73.2088   49.3490   10.0774 C.ar      1 MOL     0.0187
      4 C7         72.1853   49.9763   12.2059 C.2       1 MOL    -0.0112
      5 C8         71.5975   51.0690   12.7718 C.2       1 MOL     0.0163
      6 C10        72.7990   49.1781   13.0985 C.2       1 MOL     0.0538
      7 N12        71.7158   48.9346    6.7763 N.ar      1 MOL    -0.2334
      8 C13        72.7727   48.5679    6.0205 C.ar      1 MOL     0.1153
      9 C15        74.2100   48.7208    7.9586 C.ar      1 MOL     0.0138
     10 C14        74.0465   48.4561    6.5933 C.ar      1 MOL     0.0445
     11 N16        72.6024   48.3334    4.7195 N.pl3     1 MOL    -0.3432
     12 C3         70.7298   49.5550    8.8354 C.ar      1 MOL     0.0295
     13 C2         70.8447   49.8189   10.2025 C.ar      1 MOL     0.0108
     14 C1         72.0875   49.7323   10.8317 C.ar      1 MOL    -0.0171
     15 C11        71.7091   51.2398   14.0985 C.2       1 MOL     0.0459
     16 S9         72.5913   49.9179   14.6228 S.3       1 MOL    -0.1054
     17 H161       72.0848   47.5208    4.4163 H         1 MOL     0.1442
     18 H162       72.9910   48.9682    4.0368 H         1 MOL     0.1442
@<TRIPOS>BOND
     1    2    1 ar
     2    1    7 ar
     3    1   12 ar
     4    3    2 ar
     5    2    9 ar
     6   14    3 ar
     7    4    5 1 
     8    4    6 2 
     9    4   14 1 
    10    5   15 2 
    11    6   16 1 
    12    7    8 ar
    13    8   10 ar
    14    8   11 1 
    15    9   10 ar
    16   12   13 ar
    17   13   14 ar
    18   15   16 1 
    19   17   11 1 
    20   18   11 1 
@<TRIPOS>SUBSTRUCTURE
1 MOL         1
@<TRIPOS>MOLECULE
query molecule
   18    20     1     0     0
SMALL
NO_CHARGE

@<TRIPOS>ATOM
      1 C4         72.0776   49.0942    8.0049 C.ar      1 MOL     0.0725
      2 C5         73.2895   48.9962    8.6930 C.ar      1 MOL     0.0009
      3 C6         73.3316   49.2595   10.0625 C.ar      1 MOL     0.0187
      4 C7         72.1982   49.8939   12.1323 C.2       1 MOL    -0.0112
      5 C8         72.9934   49.1653   12.9669 C.2       1 MOL     0.0163
      6 C10        71.5131   50.8660   12.7617 C.2       1 MOL     0.0538
      7 N12        72.0121   48.8261    6.6907 N.ar      1 MOL    -0.2334
      8 C13        73.1075   48.4588    5.9922 C.ar      1 MOL     0.1153
      9 C15        74.4425   48.6242    8.0012 C.ar      1 MOL     0.0138
     10 C14        74.3503   48.3529    6.6305 C.ar      1 MOL     0.0445
     11 N16        73.0052   48.2178    4.6853 N.pl3     1 MOL    -0.3432
     12 C3         70.9196   49.4534    8.6932 C.ar      1 MOL     0.0295
     13 C2         70.9632   49.7238   10.0631 C.ar      1 MOL     0.0108
     14 C1         72.1720   49.6433   10.7561 C.ar      1 MOL    -0.0171
     15 C11        72.9909   49.4647   14.2753 C.2       1 MOL     0.0459
     16 S9         71.9320   50.7533   14.4127 S.3       1 MOL    -0.1054
     17 H161       73.3596   47.3532    4.3018 H         1 MOL     0.1442
     18 H162       72.5733   48.8998    4.0783 H         1 MOL     0.1442
@<TRIPOS>BOND
     1    2    1 ar
     2    1    7 ar
     3    1   12 ar
     4    3    2 ar
     5    2    9 ar
     6   14    3 ar
     7    4    5 1 
     8    4    6 2 
     9    4   14 1 
    10    5   15 2 
    11    6   16 1 
    12    7    8 ar
    13    8   10 ar
    14    8   11 1 
    15    9   10 ar
    16   12   13 ar
    17   13   14 ar
    18   15   16 1 
    19   17   11 1 
    20   18   11 1 
@<TRIPOS>SUBSTRUCTURE
1 MOL         1
@<TRIPOS>MOLECULE
query molecule
   18    20     1     0     0
SMALL
NO_CHARGE

@<TRIPOS>ATOM
      1 C4         70.9662   50.4399   10.8540 C.ar      1 MOL     0.0725
      2 C5         70.8029   51.2615   11.9721 C.ar      1 MOL     0.0009
      3 C6         69.9823   52.3869   11.8907 C.ar      1 MOL     0.0187
      4 C7         68.4944   53.8333   10.6002 C.2       1 MOL    -0.0112
      5 C8         67.3090   53.8808   11.2728 C.2       1 MOL     0.0163
      6 C10        68.7636   54.9585    9.9133 C.2       1 MOL     0.0538
      7 N12        71.7361   49.3415   10.9173 N.ar      1 MOL    -0.2334
      8 C13        72.3781   48.9969   12.0539 C.ar      1 MOL     0.1153
      9 C15        71.4561   50.9381   13.1617 C.ar      1 MOL     0.0138
     10 C14        72.2564   49.7898   13.2027 C.ar      1 MOL     0.0445
     11 N16        73.1473   47.9085   12.0719 N.pl3     1 MOL    -0.3432
     12 C3         70.3062   50.7510    9.6660 C.ar      1 MOL     0.0295
     13 C2         69.4900   51.8817    9.5826 C.ar      1 MOL     0.0108
     14 C1         69.3329   52.7169   10.6897 C.ar      1 MOL    -0.0171
     15 C11        66.5560   54.9866   11.1638 C.2       1 MOL     0.0459
     16 S9         67.4377   56.0028   10.1686 S.3       1 MOL    -0.1054
     17 H161       72.7663   47.0161   11.7915 H         1 MOL     0.1442
     18 H162       74.1112   47.9760   12.3659 H         1 MOL     0.1442
@<TRIPOS>BOND
     1    2    1 ar
     2    1    7 ar
     3    1   12 ar
     4    3    2 ar
     5    2    9 ar
     6   14    3 ar
     7    4    5 1 
     8    4    6 2 
     9    4   14 1 
    10    5   15 2 
    11    6   16 1 
    12    7    8 ar
    13    8   10 ar
    14    8   11 1 
    15    9   10 ar
    16   12   13 ar
    17   13   14 ar
    18   15   16 1 
    19   17   11 1 
    20   18   11 1 
@<TRIPOS>SUBSTRUCTURE
1 MOL         1
@<TRIPOS>MOLECULE
query molecule
   18    20     1     0     0
SMALL
NO_CHARGE

@<TRIPOS>ATOM
      1 C4         71.2693   49.7595    8.1113 C.ar      1 MOL     0.0725
      2 C5         72.4855   49.5750    8.7736 C.ar      1 MOL     0.0009
      3 C6         72.5841   49.8657   10.1346 C.ar      1 MOL     0.0187
      4 C7         71.5605   50.6421   12.2132 C.2       1 MOL    -0.0112
      5 C8         72.4928   50.0359   13.0024 C.2       1 MOL     0.0163
      6 C10        70.7996   51.5333   12.8745 C.2       1 MOL     0.0538
      7 N12        71.1484   49.4673    6.8062 N.ar      1 MOL    -0.2334
      8 C13        72.1911   48.9921    6.0922 C.ar      1 MOL     0.1153
      9 C15        73.5853   49.0905    8.0650 C.ar      1 MOL     0.0138
     10 C14        73.4361   48.7960    6.7041 C.ar      1 MOL     0.0445
     11 N16        72.0360   48.7302    4.7945 N.pl3     1 MOL    -0.3432
     12 C3         70.1634   50.2316    8.8168 C.ar      1 MOL     0.0295
     13 C2         70.2640   50.5293   10.1781 C.ar      1 MOL     0.0108
     14 C1         71.4788   50.3627   10.8448 C.ar      1 MOL    -0.0171
     15 C11        72.5357   50.3588   14.3046 C.2       1 MOL     0.0459
     16 S9         71.3335   51.5071   14.4957 S.3       1 MOL    -0.1054
     17 H161       72.8402   48.5123    4.2236 H         1 MOL     0.1442
     18 H162       71.1143   48.7498    4.3820 H         1 MOL     0.1442
@<TRIPOS>BOND
     1    2    1 ar
     2    1    7 ar
     3    1   12 ar
     4    3    2 ar
     5    2    9 ar
     6   14    3 ar
     7    4    5 1 
     8    4    6 2 
     9    4   14 1 
    10    5   15 2 
    11    6   16 1 
    12    7    8 ar
    13    8   10 ar
    14    8   11 1 
    15    9   10 ar
    16   12   13 ar
    17   13   14 ar
    18   15   16 1 
    19   17   11 1 
    20   18   11 1 
@<TRIPOS>SUBSTRUCTURE
1 MOL         1
@<TRIPOS>MOLECULE
query molecule
   18    20     1     0     0
SMALL
NO_CHARGE

@<TRIPOS>ATOM
      1 C4         73.7408   47.9914    9.8535 C.ar      1 MOL     0.0725
      2 C5         73.1822   49.1943    9.4142 C.ar      1 MOL     0.0009
      3 C6         72.4825   50.0015   10.3116 C.ar      1 MOL     0.0187
      4 C7         71.6287   50.4176   12.5631 C.2       1 MOL    -0.0112
      5 C8         72.1604   50.7088   13.7847 C.2       1 MOL     0.0163
      6 C10        70.4439   51.0152   12.3406 C.2       1 MOL     0.0538
      7 N12        74.4345   47.2097    9.0103 N.ar      1 MOL    -0.2334
      8 C13        74.6122   47.5539    7.7170 C.ar      1 MOL     0.1153
      9 C15        73.3419   49.5783    8.0826 C.ar      1 MOL     0.0138
     10 C14        74.0663   48.7452    7.2211 C.ar      1 MOL     0.0445
     11 N16        75.2923   46.7427    6.9069 N.pl3     1 MOL    -0.3432
     12 C3         73.5953   47.6082   11.1861 C.ar      1 MOL     0.0295
     13 C2         72.8886   48.4132   12.0830 C.ar      1 MOL     0.0108
     14 C1         72.3140   49.6091   11.6498 C.ar      1 MOL    -0.0171
     15 C11        71.4651   51.5059   14.6111 C.2       1 MOL     0.0459
     16 S9         70.0843   51.9035   13.7532 S.3       1 MOL    -0.1054
     17 H161       75.4160   45.7710    7.1529 H         1 MOL     0.1442
     18 H162       75.6838   47.0998    6.0471 H         1 MOL     0.1442
@<TRIPOS>BOND
     1    2    1 ar
     2    1    7 ar
     3    1   12 ar
     4    3    2 ar
     5    2    9 ar
     6   14    3 ar
     7    4    5 1 
     8    4    6 2 
     9    4   14 1 
    10    5   15 2 
    11    6   16 1 
    12    7    8 ar
    13    8   10 ar
    14    8   11 1 
    15    9   10 ar
    16   12   13 ar
    17   13   14 ar
    18   15   16 1 
    19   17   11 1 
    20   18   11 1 
@<TRIPOS>SUBSTRUCTURE
1 MOL         1
@<TRIPOS>MOLECULE
query molecule
   18    20     1     0     0
SMALL
NO_CHARGE

@<TRIPOS>ATOM
      1 C4         66.8863   48.3714    7.7358 C.ar      1 MOL     0.0725
      2 C5         66.6245   48.7193    9.0633 C.ar      1 MOL     0.0009
      3 C6         67.6793   49.0582    9.9114 C.ar      1 MOL     0.0187
      4 C7         70.0712   49.3876   10.2879 C.2       1 MOL    -0.0112
      5 C8         69.8990   50.2678   11.3152 C.2       1 MOL     0.0163
      6 C10        71.3197   48.8915   10.2139 C.2       1 MOL     0.0538
      7 N12        65.8836   48.0608    6.8983 N.ar      1 MOL    -0.2334
      8 C13        64.5970   48.0698    7.3073 C.ar      1 MOL     0.1153
      9 C15        65.3068   48.7338    9.5211 C.ar      1 MOL     0.0138
     10 C14        64.2782   48.4029    8.6304 C.ar      1 MOL     0.0445
     11 N16        63.6311   47.7386    6.4506 N.pl3     1 MOL    -0.3432
     12 C3         68.2000   48.3671    7.2691 C.ar      1 MOL     0.0295
     13 C2         69.2568   48.6998    8.1202 C.ar      1 MOL     0.0108
     14 C1         69.0065   49.0338    9.4520 C.ar      1 MOL    -0.0171
     15 C11        70.9530   50.5538   12.0956 C.2       1 MOL     0.0459
     16 S9         72.2008   49.6250   11.4786 S.3       1 MOL    -0.1054
     17 H161       63.8679   47.3953    5.5307 H         1 MOL     0.1442
     18 H162       62.6625   47.8309    6.7212 H         1 MOL     0.1442
@<TRIPOS>BOND
     1    2    1 ar
     2    1    7 ar
     3    1   12 ar
     4    3    2 ar
     5    2    9 ar
     6   14    3 ar
     7    4    5 1 
     8    4    6 2 
     9    4   14 1 
    10    5   15 2 
    11    6   16 1 
    12    7    8 ar
    13    8   10 ar
    14    8   11 1 
    15    9   10 ar
    16   12   13 ar
    17   13   14 ar
    18   15   16 1 
    19   17   11 1 
    20   18   11 1 
@<TRIPOS>SUBSTRUCTURE
1 MOL         1
@<TRIPOS>MOLECULE
query molecule
   18    20     1     0     0
SMALL
NO_CHARGE

@<TRIPOS>ATOM
      1 C4         72.1236   47.7511    9.0039 C.ar      1 MOL     0.0725
      2 C5         70.8421   48.1597    9.3815 C.ar      1 MOL     0.0009
      3 C6         70.6794   48.9981   10.4848 C.ar      1 MOL     0.0187
      4 C7         71.6403   50.2750   12.3335 C.2       1 MOL    -0.0112
      5 C8         72.6522   50.4538   13.2300 C.2       1 MOL     0.0163
      6 C10        70.5537   51.0228   12.5991 C.2       1 MOL     0.0538
      7 N12        72.3032   46.9601    7.9337 N.ar      1 MOL    -0.2334
      8 C13        71.2592   46.5316    7.1925 C.ar      1 MOL     0.1153
      9 C15        69.7400   47.7312    8.6411 C.ar      1 MOL     0.0138
     10 C14        69.9517   46.9040    7.5313 C.ar      1 MOL     0.0445
     11 N16        71.4769   45.7332    6.1476 N.pl3     1 MOL    -0.3432
     12 C3         73.2299   48.1861    9.7324 C.ar      1 MOL     0.0295
     13 C2         73.0664   49.0200   10.8413 C.ar      1 MOL     0.0108
     14 C1         71.7889   49.4210   11.2353 C.ar      1 MOL    -0.0171
     15 C11        72.4579   51.3009   14.2529 C.2       1 MOL     0.0459
     16 S9         70.9117   51.8975   14.0206 S.3       1 MOL    -0.1054
     17 H161       72.2216   45.9429    5.4984 H         1 MOL     0.1442
     18 H162       70.8972   44.9186    6.0051 H         1 MOL     0.1442
@<TRIPOS>BOND
     1    2    1 ar
     2    1    7 ar
     3    1   12 ar
     4    3    2 ar
     5    2    9 ar
     6   14    3 ar
     7    4    5 1 
     8    4    6 2 
     9    4   14 1 
    10    5   15 2 
    11    6   16 1 
    12    7    8 ar
    13    8   10 ar
    14    8   11 1 
    15    9   10 ar
    16   12   13 ar
    17   13   14 ar
    18   15   16 1 
    19   17   11 1 
    20   18   11 1 
@<TRIPOS>SUBSTRUCTURE
1 MOL         1
@<TRIPOS>MOLECULE
query molecule
   18    20     1     0     0
SMALL
NO_CHARGE

@<TRIPOS>ATOM
      1 C4         71.7301   49.7321   12.0121 C.ar      1 MOL     0.0725
      2 C5         70.6935   50.6543   12.1759 C.ar      1 MOL     0.0009
      3 C6         69.6014   50.6302   11.3080 C.ar      1 MOL     0.0187
      4 C7         68.4431   49.6566    9.3892 C.2       1 MOL    -0.0112
      5 C8         67.1665   49.6343    9.8683 C.2       1 MOL     0.0163
      6 C10        68.5084   49.6774    8.0454 C.2       1 MOL     0.0538
      7 N12        72.7806   49.7261   12.8485 N.ar      1 MOL    -0.2334
      8 C13        72.8735   50.6069   13.8675 C.ar      1 MOL     0.1153
      9 C15        70.7596   51.5824   13.2154 C.ar      1 MOL     0.0138
     10 C14        71.8665   51.5592   14.0728 C.ar      1 MOL     0.0445
     11 N16        73.9406   50.5804   14.6658 N.pl3     1 MOL    -0.3432
     12 C3         71.6637   48.7941   10.9828 C.ar      1 MOL     0.0295
     13 C2         70.5735   48.7745   10.1094 C.ar      1 MOL     0.0108
     14 C1         69.5405   49.7016   10.2558 C.ar      1 MOL    -0.0171
     15 C11        66.1535   49.6110    8.9879 C.2       1 MOL     0.0459
     16 S9         66.8954   49.6418    7.4881 S.3       1 MOL    -0.1054
     17 H161       74.1422   49.7552   15.2121 H         1 MOL     0.1442
     18 H162       74.5476   51.3855   14.7245 H         1 MOL     0.1442
@<TRIPOS>BOND
     1    2    1 ar
     2    1    7 ar
     3    1   12 ar
     4    3    2 ar
     5    2    9 ar
     6   14    3 ar
     7    4    5 1 
     8    4    6 2 
     9    4   14 1 
    10    5   15 2 
    11    6   16 1 
    12    7    8 ar
    13    8   10 ar
    14    8   11 1 
    15    9   10 ar
    16   12   13 ar
    17   13   14 ar
    18   15   16 1 
    19   17   11 1 
    20   18   11 1 
@<TRIPOS>SUBSTRUCTURE
1 MOL         1
@<TRIPOS>MOLECULE
query molecule
   18    20     1     0     0
SMALL
NO_CHARGE

@<TRIPOS>ATOM
      1 C4         68.7563   48.9480    6.8005 C.ar      1 MOL     0.0725
      2 C5         69.2859   48.2001    7.8550 C.ar      1 MOL     0.0009
      3 C6         70.6615   48.2089    8.0880 C.ar      1 MOL     0.0187
      4 C7         72.9045   48.9756    7.4943 C.2       1 MOL    -0.0112
      5 C8         73.7603   48.2037    6.7653 C.2       1 MOL     0.0163
      6 C10        73.5277   49.7651    8.3881 C.2       1 MOL     0.0538
      7 N12        67.4333   48.9682    6.5714 N.ar      1 MOL    -0.2334
      8 C13        66.5748   48.2689    7.3438 C.ar      1 MOL     0.1153
      9 C15        68.4280   47.4612    8.6700 C.ar      1 MOL     0.0138
     10 C14        67.0525   47.4951    8.4098 C.ar      1 MOL     0.0445
     11 N16        65.2699   48.3007    7.0737 N.pl3     1 MOL    -0.3432
     12 C3         69.6073   49.6983    5.9902 C.ar      1 MOL     0.0295
     13 C2         70.9855   49.7015    6.2193 C.ar      1 MOL     0.0108
     14 C1         71.5254   48.9455    7.2608 C.ar      1 MOL    -0.0171
     15 C11        75.0751   48.2897    7.0216 C.2       1 MOL     0.0459
     16 S9         75.1952   49.4323    8.2384 S.3       1 MOL    -0.1054
     17 H161       64.9540   48.4227    6.1222 H         1 MOL     0.1442
     18 H162       64.5971   48.2029    7.8206 H         1 MOL     0.1442
@<TRIPOS>BOND
     1    2    1 ar
     2    1    7 ar
     3    1   12 ar
     4    3    2 ar
     5    2    9 ar
     6   14    3 ar
     7    4    5 1 
     8    4    6 2 
     9    4   14 1 
    10    5   15 2 
    11    6   16 1 
    12    7    8 ar
    13    8   10 ar
    14    8   11 1 
    15    9   10 ar
    16   12   13 ar
    17   13   14 ar
    18   15   16 1 
    19   17   11 1 
    20   18   11 1 
@<TRIPOS>SUBSTRUCTURE
1 MOL         1
@<TRIPOS>MOLECULE
query molecule
   18    20     1     0     0
SMALL
NO_CHARGE

@<TRIPOS>ATOM
      1 C4         69.5649   49.8206    8.0699 C.ar      1 MOL     0.0725
      2 C5         70.7686   49.5455    8.7237 C.ar      1 MOL     0.0009
      3 C6         71.8959   49.1943    7.9804 C.ar      1 MOL     0.0187
      4 C7         72.9581   48.7580    5.8234 C.2       1 MOL    -0.0112
      5 C8         72.8380   48.1195    4.6244 C.2       1 MOL     0.0163
      6 C10        74.2307   49.0526    6.1460 C.2       1 MOL     0.0538
      7 N12        68.4737   50.1792    8.7655 N.ar      1 MOL    -0.2334
      8 C13        68.4997   50.2821   10.1115 C.ar      1 MOL     0.1153
      9 C15        70.8297   49.6370   10.1144 C.ar      1 MOL     0.0138
     10 C14        69.6781   50.0094   10.8186 C.ar      1 MOL     0.0445
     11 N16        67.3909   50.6241   10.7675 N.pl3     1 MOL    -0.3432
     12 C3         69.5007   49.7430    6.6794 C.ar      1 MOL     0.0295
     13 C2         70.6278   49.3845    5.9357 C.ar      1 MOL     0.0108
     14 C1         71.8305   49.0931    6.5809 C.ar      1 MOL    -0.0171
     15 C11        73.9547   47.8413    3.9335 C.2       1 MOL     0.0459
     16 S9         75.1970   48.4545    4.8722 S.3       1 MOL    -0.1054
     17 H161       66.9378   51.5046   10.5688 H         1 MOL     0.1442
     18 H162       67.0039   50.0026   11.4632 H         1 MOL     0.1442
@<TRIPOS>BOND
     1    2    1 ar
     2    1    7 ar
     3    1   12 ar
     4    3    2 ar
     5    2    9 ar
     6   14    3 ar
     7    4    5 1 
     8    4    6 2 
     9    4   14 1 
    10    5   15 2 
    11    6   16 1 
    12    7    8 ar
    13    8   10 ar
    14    8   11 1 
    15    9   10 ar
    16   12   13 ar
    17   13   14 ar
    18   15   16 1 
    19   17   11 1 
    20   18   11 1 
@<TRIPOS>SUBSTRUCTURE
1 MOL         1
@<TRIPOS>MOLECULE
query molecule
   18    20     1     0     0
SMALL
NO_CHARGE

@<TRIPOS>ATOM
      1 C4         67.7816   53.0189   11.4883 C.ar      1 MOL     0.0725
      2 C5         68.8599   53.1982   10.6182 C.ar      1 MOL     0.0009
      3 C6         69.8630   52.2308   10.5500 C.ar      1 MOL     0.0187
      4 C7         70.8042   50.1010   11.2910 C.2       1 MOL    -0.0112
      5 C8         71.9416   50.1895   12.0382 C.2       1 MOL     0.0163
      6 C10        70.7380   48.9794   10.5507 C.2       1 MOL     0.0538
      7 N12        66.7961   53.9287   11.5548 N.ar      1 MOL    -0.2334
      8 C13        66.8141   55.0424   10.7918 C.ar      1 MOL     0.1153
      9 C15        68.9132   54.3403    9.8189 C.ar      1 MOL     0.0138
     10 C14        67.8758   55.2767    9.9080 C.ar      1 MOL     0.0445
     11 N16        65.8260   55.9304   10.8992 N.pl3     1 MOL    -0.3432
     12 C3         67.7164   51.8736   12.2806 C.ar      1 MOL     0.0295
     13 C2         68.7244   50.9083   12.2172 C.ar      1 MOL     0.0108
     14 C1         69.8132   51.0859   11.3623 C.ar      1 MOL    -0.0171
     15 C11        72.8479   49.2040   11.9422 C.2       1 MOL     0.0459
     16 S9         72.1798   48.1186   10.8578 S.3       1 MOL    -0.1054
     17 H161       64.8901   55.6206   11.1188 H         1 MOL     0.1442
     18 H162       66.0131   56.9133   10.7609 H         1 MOL     0.1442
@<TRIPOS>BOND
     1    2    1 ar
     2    1    7 ar
     3    1   12 ar
     4    3    2 ar
     5    2    9 ar
     6   14    3 ar
     7    4    5 1 
     8    4    6 2 
     9    4   14 1 
    10    5   15 2 
    11    6   16 1 
    12    7    8 ar
    13    8   10 ar
    14    8   11 1 
    15    9   10 ar
    16   12   13 ar
    17   13   14 ar
    18   15   16 1 
    19   17   11 1 
    20   18   11 1 
@<TRIPOS>SUBSTRUCTURE
1 MOL         1
@<TRIPOS>MOLECULE
query molecule
   18    20     1     0     0
SMALL
NO_CHARGE

@<TRIPOS>ATOM
      1 C4         71.4900   50.6405   11.8819 C.ar      1 MOL     0.0725
      2 C5         72.6358   49.9221   12.2326 C.ar      1 MOL     0.0009
      3 C6         73.3854   49.2871   11.2419 C.ar      1 MOL     0.0187
      4 C7         73.7422   48.7246    8.8908 C.2       1 MOL    -0.0112
      5 C8         74.0648   49.3859    7.7426 C.2       1 MOL     0.0163
      6 C10        74.2538   47.4817    8.9525 C.2       1 MOL     0.0538
      7 N12        70.7658   51.2750   12.8179 N.ar      1 MOL    -0.2334
      8 C13        71.1143   51.2383   14.1217 C.ar      1 MOL     0.1153
      9 C15        73.0222   49.8589   13.5716 C.ar      1 MOL     0.0138
     10 C14        72.2493   50.5256   14.5303 C.ar      1 MOL     0.0445
     11 N16        70.3598   51.8666   15.0232 N.pl3     1 MOL    -0.3432
     12 C3         71.1058   50.7178   10.5440 C.ar      1 MOL     0.0295
     13 C2         71.8525   50.0760    9.5528 C.ar      1 MOL     0.0108
     14 C1         72.9900   49.3433    9.8952 C.ar      1 MOL    -0.0171
     15 C11        74.8054   48.7470    6.8234 C.2       1 MOL     0.0459
     16 S9         75.1066   47.2432    7.4931 S.3       1 MOL    -0.1054
     17 H161       69.3892   51.6108   15.1359 H         1 MOL     0.1442
     18 H162       70.7586   52.5985   15.5936 H         1 MOL     0.1442
@<TRIPOS>BOND
     1    2    1 ar
     2    1    7 ar
     3    1   12 ar
     4    3    2 ar
     5    2    9 ar
     6   14    3 ar
     7    4    5 1 
     8    4    6 2 
     9    4   14 1 
    10    5   15 2 
    11    6   16 1 
    12    7    8 ar
    13    8   10 ar
    14    8   11 1 
    15    9   10 ar
    16   12   13 ar
    17   13   14 ar
    18   15   16 1 
    19   17   11 1 
    20   18   11 1 
@<TRIPOS>SUBSTRUCTURE
1 MOL         1
@<TRIPOS>MOLECULE
query molecule
   18    20     1     0     0
SMALL
NO_CHARGE

@<TRIPOS>ATOM
      1 C4         68.8929   53.3903   10.0988 C.ar      1 MOL     0.0725
      2 C5         68.5587   53.0064   11.3999 C.ar      1 MOL     0.0009
      3 C6         69.3229   52.0401   12.0548 C.ar      1 MOL     0.0187
      4 C7         71.1983   50.4735   12.0653 C.2       1 MOL    -0.0112
      5 C8         71.8624   50.7717   13.2184 C.2       1 MOL     0.0163
      6 C10        71.3465   49.1928   11.6800 C.2       1 MOL     0.0538
      7 N12        68.1819   54.3324    9.4584 N.ar      1 MOL    -0.2334
      8 C13        67.1245   54.9348   10.0431 C.ar      1 MOL     0.1153
      9 C15        67.4686   53.6045   12.0325 C.ar      1 MOL     0.0138
     10 C14        66.7401   54.5820   11.3435 C.ar      1 MOL     0.0445
     11 N16        66.4333   55.8530    9.3682 N.pl3     1 MOL    -0.3432
     12 C3         69.9887   52.8052    9.4660 C.ar      1 MOL     0.0295
     13 C2         70.7497   51.8326   10.1192 C.ar      1 MOL     0.0108
     14 C1         70.4144   51.4315   11.4133 C.ar      1 MOL    -0.0171
     15 C11        72.5833   49.8057   13.8091 C.2       1 MOL     0.0459
     16 S9         72.3664   48.4610   12.8368 S.3       1 MOL    -0.1054
     17 H161       66.0548   55.6322    8.4581 H         1 MOL     0.1442
     18 H162       66.2879   56.7696    9.7667 H         1 MOL     0.1442
@<TRIPOS>BOND
     1    2    1 ar
     2    1    7 ar
     3    1   12 ar
     4    3    2 ar
     5    2    9 ar
     6   14    3 ar
     7    4    5 1 
     8    4    6 2 
     9    4   14 1 
    10    5   15 2 
    11    6   16 1 
    12    7    8 ar
    13    8   10 ar
    14    8   11 1 
    15    9   10 ar
    16   12   13 ar
    17   13   14 ar
    18   15   16 1 
    19   17   11 1 
    20   18   11 1 
@<TRIPOS>SUBSTRUCTURE
1 MOL         1
@<TRIPOS>MOLECULE
query molecule
   18    20     1     0     0
SMALL
NO_CHARGE

@<TRIPOS>ATOM
      1 C4         74.4618   48.0107    6.0183 C.ar      1 MOL     0.0725
      2 C5         74.4601   46.6137    6.0008 C.ar      1 MOL     0.0009
      3 C6         74.1858   45.9363    4.8123 C.ar      1 MOL     0.0187
      4 C7         73.6297   45.9752    2.4331 C.2       1 MOL    -0.0112
      5 C8         72.4914   46.2192    1.7229 C.2       1 MOL     0.0163
      6 C10        74.4512   45.0915    1.8374 C.2       1 MOL     0.0538
      7 N12        74.7423   48.6815    7.1473 N.ar      1 MOL    -0.2334
      8 C13        75.0268   48.0347    8.2977 C.ar      1 MOL     0.1153
      9 C15        74.7445   45.9131    7.1732 C.ar      1 MOL     0.0138
     10 C14        75.0307   46.6342    8.3389 C.ar      1 MOL     0.0445
     11 N16        75.2830   48.7361    9.4018 N.pl3     1 MOL    -0.3432
     12 C3         74.1905   48.7165    4.8470 C.ar      1 MOL     0.0295
     13 C2         73.9091   48.0381    3.6586 C.ar      1 MOL     0.0108
     14 C1         73.8900   46.6427    3.6348 C.ar      1 MOL    -0.0171
     15 C11        72.3058   45.5625    0.5671 C.2       1 MOL     0.0459
     16 S9         73.6737   44.6139    0.3948 S.3       1 MOL    -0.1054
     17 H161       75.2092   49.7434    9.3887 H         1 MOL     0.1442
     18 H162       75.5510   48.2605   10.2515 H         1 MOL     0.1442
@<TRIPOS>BOND
     1    2    1 ar
     2    1    7 ar
     3    1   12 ar
     4    3    2 ar
     5    2    9 ar
     6   14    3 ar
     7    4    5 1 
     8    4    6 2 
     9    4   14 1 
    10    5   15 2 
    11    6   16 1 
    12    7    8 ar
    13    8   10 ar
    14    8   11 1 
    15    9   10 ar
    16   12   13 ar
    17   13   14 ar
    18   15   16 1 
    19   17   11 1 
    20   18   11 1 
@<TRIPOS>SUBSTRUCTURE
1 MOL         1
@<TRIPOS>MOLECULE
query molecule
   18    20     1     0     0
SMALL
NO_CHARGE

@<TRIPOS>ATOM
      1 C4         66.4790   50.7700   11.4833 C.ar      1 MOL     0.0725
      2 C5         67.0052   49.9377   10.4923 C.ar      1 MOL     0.0009
      3 C6         68.3749   49.6738   10.4648 C.ar      1 MOL     0.0187
      4 C7         70.6097   49.9826   11.4039 C.2       1 MOL    -0.0112
      5 C8         71.2039   49.3764   10.3365 C.2       1 MOL     0.0163
      6 C10        71.4754   50.3142   12.3791 C.2       1 MOL     0.0538
      7 N12        65.1610   51.0209   11.5388 N.ar      1 MOL    -0.2334
      8 C13        64.3045   50.4849   10.6433 C.ar      1 MOL     0.1153
      9 C15        66.1494   49.3711    9.5473 C.ar      1 MOL     0.0138
     10 C14        64.7792   49.6499    9.6232 C.ar      1 MOL     0.0445
     11 N16        63.0052   50.7718   10.7211 N.pl3     1 MOL    -0.3432
     12 C3         67.3274   51.3292   12.4379 C.ar      1 MOL     0.0295
     13 C2         68.7000   51.0705   12.4061 C.ar      1 MOL     0.0108
     14 C1         69.2370   50.2526   11.4109 C.ar      1 MOL    -0.0171
     15 C11        72.5280   49.1608   10.3792 C.2       1 MOL     0.0459
     16 S9         73.0123   49.7910   11.8519 S.3       1 MOL    -0.1054
     17 H161       62.3425   50.0504   10.9675 H         1 MOL     0.1442
     18 H162       62.6831   51.7106   10.5338 H         1 MOL     0.1442
@<TRIPOS>BOND
     1    2    1 ar
     2    1    7 ar
     3    1   12 ar
     4    3    2 ar
     5    2    9 ar
     6   14    3 ar
     7    4    5 1 
     8    4    6 2 
     9    4   14 1 
    10    5   15 2 
    11    6   16 1 
    12    7    8 ar
    13    8   10 ar
    14    8   11 1 
    15    9   10 ar
    16   12   13 ar
    17   13   14 ar
    18   15   16 1 
    19   17   11 1 
    20   18   11 1 
@<TRIPOS>SUBSTRUCTURE
1 MOL         1
@<TRIPOS>MOLECULE
query molecule
   18    20     1     0     0
SMALL
NO_CHARGE

@<TRIPOS>ATOM
      1 C4         66.0946   48.4053    7.9349 C.ar      1 MOL     0.0725
      2 C5         65.5664   48.7140    9.1910 C.ar      1 MOL     0.0009
      3 C6         66.1723   49.6965    9.9747 C.ar      1 MOL     0.0187
      4 C7         67.9289   51.3650   10.2940 C.2       1 MOL    -0.0112
      5 C8         68.5111   51.0758   11.4928 C.2       1 MOL     0.0163
      6 C10        68.0483   52.6579    9.9410 C.2       1 MOL     0.0538
      7 N12        65.5149   47.4767    7.1572 N.ar      1 MOL    -0.2334
      8 C13        64.4118   46.8107    7.5599 C.ar      1 MOL     0.1153
      9 C15        64.4302   48.0412    9.6410 C.ar      1 MOL     0.0138
     10 C14        63.8452   47.0745    8.8139 C.ar      1 MOL     0.0445
     11 N16        63.8757   45.8836    6.7664 N.pl3     1 MOL    -0.3432
     12 C3         67.2226   49.0831    7.4745 C.ar      1 MOL     0.0295
     13 C2         67.8333   50.0620    8.2622 C.ar      1 MOL     0.0108
     14 C1         67.3220   50.3664    9.5246 C.ar      1 MOL    -0.0171
     15 C11        69.0949   52.0721   12.1770 C.2       1 MOL     0.0459
     16 S9         68.8944   53.4235   11.2105 S.3       1 MOL    -0.1054
     17 H161       64.4360   45.1056    6.4485 H         1 MOL     0.1442
     18 H162       62.9093   45.9589    6.4830 H         1 MOL     0.1442
@<TRIPOS>BOND
     1    2    1 ar
     2    1    7 ar
     3    1   12 ar
     4    3    2 ar
     5    2    9 ar
     6   14    3 ar
     7    4    5 1 
     8    4    6 2 
     9    4   14 1 
    10    5   15 2 
    11    6   16 1 
    12    7    8 ar
    13    8   10 ar
    14    8   11 1 
    15    9   10 ar
    16   12   13 ar
    17   13   14 ar
    18   15   16 1 
    19   17   11 1 
    20   18   11 1 
@<TRIPOS>SUBSTRUCTURE
1 MOL         1
@<TRIPOS>MOLECULE
query molecule
   18    20     1     0     0
SMALL
NO_CHARGE

@<TRIPOS>ATOM
      1 C4         68.4462   49.3799    7.8376 C.ar      1 MOL     0.0725
      2 C5         69.0621   49.3747    9.0916 C.ar      1 MOL     0.0009
      3 C6         70.4506   49.2705    9.1809 C.ar      1 MOL     0.0187
      4 C7         72.6319   49.0610    8.0995 C.2       1 MOL    -0.0112
      5 C8         73.4246   50.1218    7.7741 C.2       1 MOL     0.0163
      6 C10        73.3238   47.9890    8.5268 C.2       1 MOL     0.0538
      7 N12        67.1131   49.4988    7.7294 N.ar      1 MOL    -0.2334
      8 C13        66.3261   49.6128    8.8204 C.ar      1 MOL     0.1153
      9 C15        68.2786   49.4853   10.2406 C.ar      1 MOL     0.0138
     10 C14        66.8902   49.6047   10.1029 C.ar      1 MOL     0.0445
     11 N16        65.0051   49.7114    8.6724 N.pl3     1 MOL    -0.3432
     12 C3         69.2249   49.2822    6.6853 C.ar      1 MOL     0.0295
     13 C2         70.6147   49.1709    6.7750 C.ar      1 MOL     0.0108
     14 C1         71.2376   49.1494    8.0238 C.ar      1 MOL    -0.0171
     15 C11        74.7551   49.9835    7.8852 C.2       1 MOL     0.0459
     16 S9         74.9726   48.4248    8.4541 S.3       1 MOL    -0.1054
     17 H161       64.5929   50.5883    8.3873 H         1 MOL     0.1442
     18 H162       64.4163   48.9093    8.8452 H         1 MOL     0.1442
@<TRIPOS>BOND
     1    2    1 ar
     2    1    7 ar
     3    1   12 ar
     4    3    2 ar
     5    2    9 ar
     6   14    3 ar
     7    4    5 1 
     8    4    6 2 
     9    4   14 1 
    10    5   15 2 
    11    6   16 1 
    12    7    8 ar
    13    8   10 ar
    14    8   11 1 
    15    9   10 ar
    16   12   13 ar
    17   13   14 ar
    18   15   16 1 
    19   17   11 1 
    20   18   11 1 
@<TRIPOS>SUBSTRUCTURE
1 MOL         1
@<TRIPOS>MOLECULE
query molecule
   18    20     1     0     0
SMALL
NO_CHARGE

@<TRIPOS>ATOM
      1 C4         64.0477   47.4099   14.6037 C.ar      1 MOL     0.0725
      2 C5         64.5724   46.1856   15.0253 C.ar      1 MOL     0.0009
      3 C6         65.0813   46.0585   16.3181 C.ar      1 MOL     0.0187
      4 C7         65.5844   47.0352   18.5008 C.2       1 MOL    -0.0112
      5 C8         65.9484   48.1348   19.2207 C.2       1 MOL     0.0163
      6 C10        65.7074   45.8839   19.1863 C.2       1 MOL     0.0538
      7 N12        63.5355   47.5476   13.3701 N.ar      1 MOL    -0.2334
      8 C13        63.5129   46.5167   12.4985 C.ar      1 MOL     0.1153
      9 C15        64.5700   45.1005   14.1485 C.ar      1 MOL     0.0138
     10 C14        64.0336   45.2689   12.8660 C.ar      1 MOL     0.0445
     11 N16        63.0117   46.6978   11.2768 N.pl3     1 MOL    -0.3432
     12 C3         64.0360   48.4946   15.4795 C.ar      1 MOL     0.0295
     13 C2         64.5520   48.3692   16.7717 C.ar      1 MOL     0.0108
     14 C1         65.0921   47.1545   17.1967 C.ar      1 MOL    -0.0171
     15 C11        66.3954   47.9592   20.4741 C.2       1 MOL     0.0459
     16 S9         66.3154   46.3065   20.7244 S.3       1 MOL    -0.1054
     17 H161       62.2962   47.3938   11.1226 H         1 MOL     0.1442
     18 H162       63.3474   46.1392   10.5053 H         1 MOL     0.1442
@<TRIPOS>BOND
     1    2    1 ar
     2    1    7 ar
     3    1   12 ar
     4    3    2 ar
     5    2    9 ar
     6   14    3 ar
     7    4    5 1 
     8    4    6 2 
     9    4   14 1 
    10    5   15 2 
    11    6   16 1 
    12    7    8 ar
    13    8   10 ar
    14    8   11 1 
    15    9   10 ar
    16   12   13 ar
    17   13   14 ar
    18   15   16 1 
    19   17   11 1 
    20   18   11 1 
@<TRIPOS>SUBSTRUCTURE
1 MOL         1
@<TRIPOS>MOLECULE
query molecule
   18    20     1     0     0
SMALL
NO_CHARGE

@<TRIPOS>ATOM
      1 C4         64.5059   47.4975    8.0138 C.ar      1 MOL     0.0725
      2 C5         64.9706   48.0121    9.2268 C.ar      1 MOL     0.0009
      3 C6         64.3199   47.6791   10.4151 C.ar      1 MOL     0.0187
      4 C7         62.5367   46.4931   11.5920 C.2       1 MOL    -0.0112
      5 C8         63.2362   46.0471   12.6743 C.2       1 MOL     0.0163
      6 C10        61.2132   46.5896   11.8148 C.2       1 MOL     0.0538
      7 N12        65.1297   47.7903    6.8613 N.ar      1 MOL    -0.2334
      8 C13        66.2175   48.5894    6.8334 C.ar      1 MOL     0.1153
      9 C15        66.0893   48.8456    9.2341 C.ar      1 MOL     0.0138
     10 C14        66.7211   49.1396    8.0195 C.ar      1 MOL     0.0445
     11 N16        66.7985   48.8706    5.6672 N.pl3     1 MOL    -0.3432
     12 C3         63.3959   46.6540    8.0014 C.ar      1 MOL     0.0295
     13 C2         62.7402   46.3262    9.1907 C.ar      1 MOL     0.0108
     14 C1         63.1878   46.8476   10.4055 C.ar      1 MOL    -0.0171
     15 C11        62.5585   45.7405   13.7916 C.2       1 MOL     0.0459
     16 S9         60.9599   46.0676   13.4202 S.3       1 MOL    -0.1054
     17 H161       67.8053   48.9223    5.6040 H         1 MOL     0.1442
     18 H162       66.2322   49.0318    4.8467 H         1 MOL     0.1442
@<TRIPOS>BOND
     1    2    1 ar
     2    1    7 ar
     3    1   12 ar
     4    3    2 ar
     5    2    9 ar
     6   14    3 ar
     7    4    5 1 
     8    4    6 2 
     9    4   14 1 
    10    5   15 2 
    11    6   16 1 
    12    7    8 ar
    13    8   10 ar
    14    8   11 1 
    15    9   10 ar
    16   12   13 ar
    17   13   14 ar
    18   15   16 1 
    19   17   11 1 
    20   18   11 1 
@<TRIPOS>SUBSTRUCTURE
1 MOL         1
@<TRIPOS>MOLECULE
query molecule
   18    20     1     0     0
SMALL
NO_CHARGE

@<TRIPOS>ATOM
      1 C4         71.2924   50.6698   12.0678 C.ar      1 MOL     0.0725
      2 C5         71.3211   49.3496   11.6116 C.ar      1 MOL     0.0009
      3 C6         70.4861   48.9605   10.5638 C.ar      1 MOL     0.0187
      4 C7         68.7691   49.5027    8.9117 C.2       1 MOL    -0.0112
      5 C8         67.7690   48.5920    9.0849 C.2       1 MOL     0.0163
      6 C10        68.8225   50.0061    7.6650 C.2       1 MOL     0.0538
      7 N12        72.1019   51.0690   13.0620 N.ar      1 MOL    -0.2334
      8 C13        72.9630   50.2144   13.6543 C.ar      1 MOL     0.1153
      9 C15        72.1952   48.4383   12.2047 C.ar      1 MOL     0.0138
     10 C14        73.0273   48.8769   13.2421 C.ar      1 MOL     0.0445
     11 N16        73.7380   50.6446   14.6498 N.pl3     1 MOL    -0.3432
     12 C3         70.4299   51.5882   11.4708 C.ar      1 MOL     0.0295
     13 C2         69.5888   51.1968   10.4262 C.ar      1 MOL     0.0108
     14 C1         69.5994   49.8765    9.9739 C.ar      1 MOL    -0.0171
     15 C11        66.9923   48.2876    8.0333 C.2       1 MOL     0.0459
     16 S9         67.5757   49.2394    6.7866 S.3       1 MOL    -0.1054
     17 H161       74.4826   51.3008   14.4628 H         1 MOL     0.1442
     18 H162       73.5806   50.3143   15.5912 H         1 MOL     0.1442
@<TRIPOS>BOND
     1    2    1 ar
     2    1    7 ar
     3    1   12 ar
     4    3    2 ar
     5    2    9 ar
     6   14    3 ar
     7    4    5 1 
     8    4    6 2 
     9    4   14 1 
    10    5   15 2 
    11    6   16 1 
    12    7    8 ar
    13    8   10 ar
    14    8   11 1 
    15    9   10 ar
    16   12   13 ar
    17   13   14 ar
    18   15   16 1 
    19   17   11 1 
    20   18   11 1 
@<TRIPOS>SUBSTRUCTURE
1 MOL         1
@<TRIPOS>MOLECULE
query molecule
   18    20     1     0     0
SMALL
NO_CHARGE

@<TRIPOS>ATOM
      1 C4         71.5238   50.2322   10.2730 C.ar      1 MOL     0.0725
      2 C5         72.5933   49.3609   10.4942 C.ar      1 MOL     0.0009
      3 C6         73.2262   48.7520    9.4101 C.ar      1 MOL     0.0187
      4 C7         73.4239   48.3964    7.0006 C.2       1 MOL    -0.0112
      5 C8         74.2588   49.1157    6.1973 C.2       1 MOL     0.0163
      6 C10        73.3328   47.1002    6.6511 C.2       1 MOL     0.0538
      7 N12        70.9138   50.8433   11.3015 N.ar      1 MOL    -0.2334
      8 C13        71.3070   50.6362   12.5763 C.ar      1 MOL     0.1153
      9 C15        73.0223   49.1198   11.7996 C.ar      1 MOL     0.0138
     10 C14        72.3687   49.7658   12.8561 C.ar      1 MOL     0.0445
     11 N16        70.6649   51.2480   13.5713 N.pl3     1 MOL    -0.3432
     12 C3         71.0985   50.4868    8.9700 C.ar      1 MOL     0.0295
     13 C2         71.7277   49.8716    7.8849 C.ar      1 MOL     0.0108
     14 C1         72.7871   48.9880    8.0968 C.ar      1 MOL    -0.0171
     15 C11        74.8566   48.4888    5.1719 C.2       1 MOL     0.0459
     16 S9         74.3263   46.9050    5.2769 S.3       1 MOL    -0.1054
     17 H161       70.5096   50.7650   14.4447 H         1 MOL     0.1442
     18 H162       70.3337   52.1947   13.4520 H         1 MOL     0.1442
@<TRIPOS>BOND
     1    2    1 ar
     2    1    7 ar
     3    1   12 ar
     4    3    2 ar
     5    2    9 ar
     6   14    3 ar
     7    4    5 1 
     8    4    6 2 
     9    4   14 1 
    10    5   15 2 
    11    6   16 1 
    12    7    8 ar
    13    8   10 ar
    14    8   11 1 
    15    9   10 ar
    16   12   13 ar
    17   13   14 ar
    18   15   16 1 
    19   17   11 1 
    20   18   11 1 
@<TRIPOS>SUBSTRUCTURE
1 MOL         1
@<TRIPOS>MOLECULE
query molecule
   18    20     1     0     0
SMALL
NO_CHARGE

@<TRIPOS>ATOM
      1 C4         68.7490   41.8466    9.9069 C.ar      1 MOL     0.0725
      2 C5         69.4306   40.6726   10.2371 C.ar      1 MOL     0.0009
      3 C6         70.2757   40.0757    9.3011 C.ar      1 MOL     0.0187
      4 C7         71.2913   40.0501    7.0786 C.2       1 MOL    -0.0112
      5 C8         71.2623   40.4310    5.7695 C.2       1 MOL     0.0163
      6 C10        72.2337   39.1275    7.3452 C.2       1 MOL     0.0538
      7 N12        67.9461   42.4472   10.8002 N.ar      1 MOL    -0.2334
      8 C13        67.7674   41.9397   12.0384 C.ar      1 MOL     0.1153
      9 C15        69.2649   40.1176   11.5063 C.ar      1 MOL     0.0138
     10 C14        68.4200   40.7599   12.4198 C.ar      1 MOL     0.0445
     11 N16        66.9487   42.5557   12.8909 N.pl3     1 MOL    -0.3432
     12 C3         68.9201   42.4127    8.6444 C.ar      1 MOL     0.0295
     13 C2         69.7609   41.8112    7.7048 C.ar      1 MOL     0.0108
     14 C1         70.4341   40.6300    8.0201 C.ar      1 MOL    -0.0171
     15 C11        72.1221   39.8529    4.9162 C.2       1 MOL     0.0459
     16 S9         73.0099   38.7952    5.8616 S.3       1 MOL    -0.1054
     17 H161       66.7913   42.1674   13.8100 H         1 MOL     0.1442
     18 H162       66.4856   43.4107   12.6180 H         1 MOL     0.1442
@<TRIPOS>BOND
     1    2    1 ar
     2    1    7 ar
     3    1   12 ar
     4    3    2 ar
     5    2    9 ar
     6   14    3 ar
     7    4    5 1 
     8    4    6 2 
     9    4   14 1 
    10    5   15 2 
    11    6   16 1 
    12    7    8 ar
    13    8   10 ar
    14    8   11 1 
    15    9   10 ar
    16   12   13 ar
    17   13   14 ar
    18   15   16 1 
    19   17   11 1 
    20   18   11 1 
@<TRIPOS>SUBSTRUCTURE
1 MOL         1
@<TRIPOS>MOLECULE
query molecule
   18    20     1     0     0
SMALL
NO_CHARGE

@<TRIPOS>ATOM
      1 C4         70.1808   49.4870   10.8338 C.ar      1 MOL     0.0725
      2 C5         69.7283   50.4347   11.7552 C.ar      1 MOL     0.0009
      3 C6         68.4356   50.9475   11.6430 C.ar      1 MOL     0.0187
      4 C7         66.2844   51.0319   10.4869 C.2       1 MOL    -0.0112
      5 C8         66.0139   52.3562   10.6684 C.2       1 MOL     0.0163
      6 C10        65.2008   50.3066   10.1546 C.2       1 MOL     0.0538
      7 N12        71.4146   48.9668   10.9358 N.ar      1 MOL    -0.2334
      8 C13        72.2566   49.3412   11.9225 C.ar      1 MOL     0.1153
      9 C15        70.5741   50.8484   12.7846 C.ar      1 MOL     0.0138
     10 C14        71.8575   50.2945   12.8686 C.ar      1 MOL     0.0445
     11 N16        73.4798   48.8147   11.9798 N.pl3     1 MOL    -0.3432
     12 C3         69.3358   49.0604    9.8102 C.ar      1 MOL     0.0295
     13 C2         68.0438   49.5791    9.6938 C.ar      1 MOL     0.0108
     14 C1         67.5882   50.5375   10.6003 C.ar      1 MOL    -0.0171
     15 C11        64.7464   52.7750   10.5274 C.2       1 MOL     0.0459
     16 S9         63.8876   51.3967   10.1233 S.3       1 MOL    -0.1054
     17 H161       74.0960   48.8809   11.1822 H         1 MOL     0.1442
     18 H162       73.7905   48.3496   12.8207 H         1 MOL     0.1442
@<TRIPOS>BOND
     1    2    1 ar
     2    1    7 ar
     3    1   12 ar
     4    3    2 ar
     5    2    9 ar
     6   14    3 ar
     7    4    5 1 
     8    4    6 2 
     9    4   14 1 
    10    5   15 2 
    11    6   16 1 
    12    7    8 ar
    13    8   10 ar
    14    8   11 1 
    15    9   10 ar
    16   12   13 ar
    17   13   14 ar
    18   15   16 1 
    19   17   11 1 
    20   18   11 1 
@<TRIPOS>SUBSTRUCTURE
1 MOL         1
@<TRIPOS>MOLECULE
query molecule
   18    20     1     0     0
SMALL
NO_CHARGE

@<TRIPOS>ATOM
      1 C4         71.5655   50.0980   12.5020 C.ar      1 MOL     0.0725
      2 C5         70.4161   50.0465   11.7094 C.ar      1 MOL     0.0009
      3 C6         70.2993   49.0681   10.7216 C.ar      1 MOL     0.0187
      4 C7         71.2219   47.1489    9.5230 C.2       1 MOL    -0.0112
      5 C8         70.2704   47.2203    8.5488 C.2       1 MOL     0.0163
      6 C10        72.0284   46.0784    9.4039 C.2       1 MOL     0.0538
      7 N12        71.6891   51.0196   13.4708 N.ar      1 MOL    -0.2334
      8 C13        70.7161   51.9247   13.7090 C.ar      1 MOL     0.1153
      9 C15        69.3930   50.9701   11.9248 C.ar      1 MOL     0.0138
     10 C14        69.5459   51.9239   12.9385 C.ar      1 MOL     0.0445
     11 N16        70.8836   52.8348   14.6684 N.pl3     1 MOL    -0.3432
     12 C3         72.5861   49.1700   12.2998 C.ar      1 MOL     0.0295
     13 C2         72.4720   48.1947   11.3060 C.ar      1 MOL     0.0108
     14 C1         71.3343   48.1448   10.4992 C.ar      1 MOL    -0.0171
     15 C11        70.2238   46.2448    7.6279 C.2       1 MOL     0.0459
     16 S9         71.4780   45.2155    8.0377 S.3       1 MOL    -0.1054
     17 H161       71.1569   52.5456   15.5967 H         1 MOL     0.1442
     18 H162       70.7372   53.8136   14.4670 H         1 MOL     0.1442
@<TRIPOS>BOND
     1    2    1 ar
     2    1    7 ar
     3    1   12 ar
     4    3    2 ar
     5    2    9 ar
     6   14    3 ar
     7    4    5 1 
     8    4    6 2 
     9    4   14 1 
    10    5   15 2 
    11    6   16 1 
    12    7    8 ar
    13    8   10 ar
    14    8   11 1 
    15    9   10 ar
    16   12   13 ar
    17   13   14 ar
    18   15   16 1 
    19   17   11 1 
    20   18   11 1 
@<TRIPOS>SUBSTRUCTURE
1 MOL         1
@<TRIPOS>MOLECULE
query molecule
   18    20     1     0     0
SMALL
NO_CHARGE

@<TRIPOS>ATOM
      1 C4         70.2478   50.2800   11.4630 C.ar      1 MOL     0.0725
      2 C5         71.5045   50.4247   12.0559 C.ar      1 MOL     0.0009
      3 C6         72.6409   49.9610   11.3924 C.ar      1 MOL     0.0187
      4 C7         73.6688   48.8758    9.4592 C.2       1 MOL    -0.0112
      5 C8         74.1857   49.5737    8.4078 C.2       1 MOL     0.0163
      6 C10        74.3793   47.7765    9.7710 C.2       1 MOL     0.0538
      7 N12        69.1440   50.7368   12.0763 N.ar      1 MOL    -0.2334
      8 C13        69.2085   51.3442   13.2803 C.ar      1 MOL     0.1153
      9 C15        71.6073   51.0428   13.3023 C.ar      1 MOL     0.0138
     10 C14        70.4421   51.5081   13.9242 C.ar      1 MOL     0.0445
     11 N16        68.0884   51.7686   13.8649 N.pl3     1 MOL    -0.3432
     12 C3         70.1400   49.6742   10.2119 C.ar      1 MOL     0.0295
     13 C2         71.2772   49.2037    9.5507 C.ar      1 MOL     0.0108
     14 C1         72.5352   49.3301   10.1419 C.ar      1 MOL    -0.0171
     15 C11        75.2865   49.0985    7.8043 C.2       1 MOL     0.0459
     16 S9         75.6682   47.7082    8.6539 S.3       1 MOL    -0.1054
     17 H161       67.2318   51.2448   13.7553 H         1 MOL     0.1442
     18 H162       68.0961   52.6139   14.4175 H         1 MOL     0.1442
@<TRIPOS>BOND
     1    2    1 ar
     2    1    7 ar
     3    1   12 ar
     4    3    2 ar
     5    2    9 ar
     6   14    3 ar
     7    4    5 1 
     8    4    6 2 
     9    4   14 1 
    10    5   15 2 
    11    6   16 1 
    12    7    8 ar
    13    8   10 ar
    14    8   11 1 
    15    9   10 ar
    16   12   13 ar
    17   13   14 ar
    18   15   16 1 
    19   17   11 1 
    20   18   11 1 
@<TRIPOS>SUBSTRUCTURE
1 MOL         1
@<TRIPOS>MOLECULE
query molecule
   18    20     1     0     0
SMALL
NO_CHARGE

@<TRIPOS>ATOM
      1 C4         73.0651   47.4176    3.1802 C.ar      1 MOL     0.0725
      2 C5         73.8078   46.2977    3.5625 C.ar      1 MOL     0.0009
      3 C6         74.4319   46.2734    4.8100 C.ar      1 MOL     0.0187
      4 C7         74.9478   47.3531    6.9407 C.2       1 MOL    -0.0112
      5 C8         75.2092   48.5092    7.6151 C.2       1 MOL     0.0163
      6 C10        75.2872   46.2465    7.6268 C.2       1 MOL     0.0538
      7 N12        72.4407   47.4528    1.9919 N.ar      1 MOL    -0.2334
      8 C13        72.5111   46.4167    1.1292 C.ar      1 MOL     0.1153
      9 C15        73.9061   45.2110    2.6931 C.ar      1 MOL     0.0138
     10 C14        73.2492   45.2720    1.4579 C.ar      1 MOL     0.0445
     11 N16        71.8917   46.4967   -0.0483 N.pl3     1 MOL    -0.3432
     12 C3         72.9528   48.5016    4.0498 C.ar      1 MOL     0.0295
     13 C2         73.5836   48.4800    5.2961 C.ar      1 MOL     0.0108
     14 C1         74.3403   47.3721    5.6805 C.ar      1 MOL    -0.0171
     15 C11        75.7759   48.4269    8.8291 C.2       1 MOL     0.0459
     16 S9         75.9509   46.7855    9.1043 S.3       1 MOL    -0.1054
     17 H161       72.3044   46.0709   -0.8660 H         1 MOL     0.1442
     18 H162       71.0097   46.9830   -0.1230 H         1 MOL     0.1442
@<TRIPOS>BOND
     1    2    1 ar
     2    1    7 ar
     3    1   12 ar
     4    3    2 ar
     5    2    9 ar
     6   14    3 ar
     7    4    5 1 
     8    4    6 2 
     9    4   14 1 
    10    5   15 2 
    11    6   16 1 
    12    7    8 ar
    13    8   10 ar
    14    8   11 1 
    15    9   10 ar
    16   12   13 ar
    17   13   14 ar
    18   15   16 1 
    19   17   11 1 
    20   18   11 1 
@<TRIPOS>SUBSTRUCTURE
1 MOL         1
@<TRIPOS>MOLECULE
query molecule
   18    20     1     0     0
SMALL
NO_CHARGE

@<TRIPOS>ATOM
      1 C4         69.3076   49.6884   10.7856 C.ar      1 MOL     0.0725
      2 C5         68.9556   50.7147   11.6657 C.ar      1 MOL     0.0009
      3 C6         67.6640   51.2413   11.6346 C.ar      1 MOL     0.0187
      4 C7         65.4134   51.2741   10.6831 C.2       1 MOL    -0.0112
      5 C8         64.3391   50.4768   10.9475 C.2       1 MOL     0.0163
      6 C10        65.0812   52.5568   10.4490 C.2       1 MOL     0.0538
      7 N12        70.5396   49.1548   10.8128 N.ar      1 MOL    -0.2334
      8 C13        71.4760   49.5905   11.6823 C.ar      1 MOL     0.1153
      9 C15        69.9003   51.1929   12.5741 C.ar      1 MOL     0.0138
     10 C14        71.1795   50.6233   12.5815 C.ar      1 MOL     0.0445
     11 N16        72.6930   49.0473   11.6667 N.pl3     1 MOL    -0.3432
     12 C3         68.3642   49.1978    9.8839 C.ar      1 MOL     0.0295
     13 C2         67.0729   49.7299    9.8481 C.ar      1 MOL     0.0108
     14 C1         66.7165   50.7658   10.7129 C.ar      1 MOL    -0.0171
     15 C11        63.1143   51.0254   10.9230 C.2       1 MOL     0.0459
     16 S9         63.3801   52.6384   10.5648 S.3       1 MOL    -0.1054
     17 H161       73.4119   49.4358   11.0730 H         1 MOL     0.1442
     18 H162       72.8965   48.2472   12.2484 H         1 MOL     0.1442
@<TRIPOS>BOND
     1    2    1 ar
     2    1    7 ar
     3    1   12 ar
     4    3    2 ar
     5    2    9 ar
     6   14    3 ar
     7    4    5 1 
     8    4    6 2 
     9    4   14 1 
    10    5   15 2 
    11    6   16 1 
    12    7    8 ar
    13    8   10 ar
    14    8   11 1 
    15    9   10 ar
    16   12   13 ar
    17   13   14 ar
    18   15   16 1 
    19   17   11 1 
    20   18   11 1 
@<TRIPOS>SUBSTRUCTURE
1 MOL         1
@<TRIPOS>MOLECULE
query molecule
   18    20     1     0     0
SMALL
NO_CHARGE

@<TRIPOS>ATOM
      1 C4         73.0660   49.5995   10.1032 C.ar      1 MOL     0.0725
      2 C5         72.1285   50.2370    9.2865 C.ar      1 MOL     0.0009
      3 C6         70.8909   50.6086    9.8124 C.ar      1 MOL     0.0187
      4 C7         69.3351   50.7131   11.6940 C.2       1 MOL    -0.0112
      5 C8         69.2577   51.2949   12.9249 C.2       1 MOL     0.0163
      6 C10        68.1430   50.6030   11.0798 C.2       1 MOL     0.0538
      7 N12        74.2700   49.2512    9.6215 N.ar      1 MOL    -0.2334
      8 C13        74.6136   49.4992    8.3396 C.ar      1 MOL     0.1153
      9 C15        72.4484   50.5039    7.9551 C.ar      1 MOL     0.0138
     10 C14        73.7088   50.1283    7.4743 C.ar      1 MOL     0.0445
     11 N16        75.8120   49.1224    7.8941 N.pl3     1 MOL    -0.3432
     12 C3         72.7569   49.3413   11.4379 C.ar      1 MOL     0.0295
     13 C2         71.5149   49.7072   11.9626 C.ar      1 MOL     0.0108
     14 C1         70.5663   50.3306   11.1506 C.ar      1 MOL    -0.0171
     15 C11        68.0504   51.6583   13.3855 C.2       1 MOL     0.0459
     16 S9         66.9880   51.2455   12.1601 S.3       1 MOL    -0.1054
     17 H161       76.6279   49.6779    8.1082 H         1 MOL     0.1442
     18 H162       75.9043   48.2815    7.3425 H         1 MOL     0.1442
@<TRIPOS>BOND
     1    2    1 ar
     2    1    7 ar
     3    1   12 ar
     4    3    2 ar
     5    2    9 ar
     6   14    3 ar
     7    4    5 1 
     8    4    6 2 
     9    4   14 1 
    10    5   15 2 
    11    6   16 1 
    12    7    8 ar
    13    8   10 ar
    14    8   11 1 
    15    9   10 ar
    16   12   13 ar
    17   13   14 ar
    18   15   16 1 
    19   17   11 1 
    20   18   11 1 
@<TRIPOS>SUBSTRUCTURE
1 MOL         1
@<TRIPOS>MOLECULE
query molecule
   18    20     1     0     0
SMALL
NO_CHARGE

@<TRIPOS>ATOM
      1 C4         69.6602   51.0188   12.8443 C.ar      1 MOL     0.0725
      2 C5         69.1965   50.4876   11.6382 C.ar      1 MOL     0.0009
      3 C6         70.1063   49.9836   10.7082 C.ar      1 MOL     0.0187
      4 C7         72.4086   49.5053   10.0433 C.2       1 MOL    -0.0112
      5 C8         73.1850   50.3290    9.2827 C.2       1 MOL     0.0163
      6 C10        72.6620   48.1990    9.8441 C.2       1 MOL     0.0538
      7 N12        68.7999   51.4912   13.7607 N.ar      1 MOL    -0.2334
      8 C13        67.4666   51.4732   13.5492 C.ar      1 MOL     0.1153
      9 C15        67.8250   50.4582   11.3844 C.ar      1 MOL     0.0138
     10 C14        66.9474   50.9595   12.3535 C.ar      1 MOL     0.0445
     11 N16        66.6459   51.9673   14.4760 N.pl3     1 MOL    -0.3432
     12 C3         71.0289   51.0397   13.1090 C.ar      1 MOL     0.0295
     13 C2         71.9402   50.5413   12.1747 C.ar      1 MOL     0.0108
     14 C1         71.4875   50.0226   10.9606 C.ar      1 MOL    -0.0171
     15 C11        74.0647   49.7745    8.4339 C.2       1 MOL     0.0459
     16 S9         73.8846   48.1255    8.6552 S.3       1 MOL    -0.1054
     17 H161       66.5708   51.5160   15.3765 H         1 MOL     0.1442
     18 H162       66.0990   52.7930   14.2779 H         1 MOL     0.1442
@<TRIPOS>BOND
     1    2    1 ar
     2    1    7 ar
     3    1   12 ar
     4    3    2 ar
     5    2    9 ar
     6   14    3 ar
     7    4    5 1 
     8    4    6 2 
     9    4   14 1 
    10    5   15 2 
    11    6   16 1 
    12    7    8 ar
    13    8   10 ar
    14    8   11 1 
    15    9   10 ar
    16   12   13 ar
    17   13   14 ar
    18   15   16 1 
    19   17   11 1 
    20   18   11 1 
@<TRIPOS>SUBSTRUCTURE
1 MOL         1
@<TRIPOS>MOLECULE
query molecule
   18    20     1     0     0
SMALL
NO_CHARGE

@<TRIPOS>ATOM
      1 C4         62.1036   54.6918   18.0753 C.ar      1 MOL     0.0725
      2 C5         63.4742   54.7833   18.3302 C.ar      1 MOL     0.0009
      3 C6         64.0130   55.9817   18.7995 C.ar      1 MOL     0.0187
      4 C7         63.7217   58.3089   19.4856 C.2       1 MOL    -0.0112
      5 C8         63.2437   58.8762   20.6299 C.2       1 MOL     0.0163
      6 C10        64.7430   58.9922   18.9375 C.2       1 MOL     0.0538
      7 N12        61.5625   53.5419   17.6418 N.ar      1 MOL    -0.2334
      8 C13        62.3185   52.4427   17.4347 C.ar      1 MOL     0.1153
      9 C15        64.2861   53.6681   18.1219 C.ar      1 MOL     0.0138
     10 C14        63.6998   52.4809   17.6662 C.ar      1 MOL     0.0445
     11 N16        61.7469   51.3248   16.9872 N.pl3     1 MOL    -0.3432
     12 C3         61.2851   55.7992   18.2934 C.ar      1 MOL     0.0295
     13 C2         61.8258   57.0012   18.7568 C.ar      1 MOL     0.0108
     14 C1         63.1961   57.1068   18.9996 C.ar      1 MOL    -0.0171
     15 C11        63.8008   60.0200   21.0575 C.2       1 MOL     0.0459
     16 S9         65.0012   60.3501   19.9392 S.3       1 MOL    -0.1054
     17 H161       61.3664   50.6555   17.6410 H         1 MOL     0.1442
     18 H162       61.6941   51.1470   15.9944 H         1 MOL     0.1442
@<TRIPOS>BOND
     1    2    1 ar
     2    1    7 ar
     3    1   12 ar
     4    3    2 ar
     5    2    9 ar
     6   14    3 ar
     7    4    5 1 
     8    4    6 2 
     9    4   14 1 
    10    5   15 2 
    11    6   16 1 
    12    7    8 ar
    13    8   10 ar
    14    8   11 1 
    15    9   10 ar
    16   12   13 ar
    17   13   14 ar
    18   15   16 1 
    19   17   11 1 
    20   18   11 1 
@<TRIPOS>SUBSTRUCTURE
1 MOL         1
@<TRIPOS>MOLECULE
query molecule
   18    20     1     0     0
SMALL
NO_CHARGE

@<TRIPOS>ATOM
      1 C4         72.0743   50.0883   12.4065 C.ar      1 MOL     0.0725
      2 C5         71.3345   50.7508   11.4239 C.ar      1 MOL     0.0009
      3 C6         71.5529   50.4582   10.0773 C.ar      1 MOL     0.0187
      4 C7         72.7412   49.2043    8.3490 C.2       1 MOL    -0.0112
      5 C8         73.8480   48.5115    7.9558 C.2       1 MOL     0.0163
      6 C10        71.9031   49.4907    7.3360 C.2       1 MOL     0.0538
      7 N12        71.8657   50.3415   13.7086 N.ar      1 MOL    -0.2334
      8 C13        70.9432   51.2413   14.1114 C.ar      1 MOL     0.1153
      9 C15        70.3766   51.6910   11.8044 C.ar      1 MOL     0.0138
     10 C14        70.1791   51.9408   13.1680 C.ar      1 MOL     0.0445
     11 N16        70.7777   51.4775   15.4127 N.pl3     1 MOL    -0.3432
     12 C3         73.0243   49.1387   12.0330 C.ar      1 MOL     0.0295
     13 C2         73.2479   48.8507   10.6843 C.ar      1 MOL     0.0108
     14 C1         72.5245   49.5185    9.6950 C.ar      1 MOL    -0.0171
     15 C11        73.9919   48.2223    6.6530 C.2       1 MOL     0.0459
     16 S9         72.6255   48.8575    5.9250 S.3       1 MOL    -0.1054
     17 H161       70.6845   52.4265   15.7459 H         1 MOL     0.1442
     18 H162       70.7455   50.7077   16.0656 H         1 MOL     0.1442
@<TRIPOS>BOND
     1    2    1 ar
     2    1    7 ar
     3    1   12 ar
     4    3    2 ar
     5    2    9 ar
     6   14    3 ar
     7    4    5 1 
     8    4    6 2 
     9    4   14 1 
    10    5   15 2 
    11    6   16 1 
    12    7    8 ar
    13    8   10 ar
    14    8   11 1 
    15    9   10 ar
    16   12   13 ar
    17   13   14 ar
    18   15   16 1 
    19   17   11 1 
    20   18   11 1 
@<TRIPOS>SUBSTRUCTURE
1 MOL         1
@<TRIPOS>MOLECULE
query molecule
   18    20     1     0     0
SMALL
NO_CHARGE

@<TRIPOS>ATOM
      1 C4         64.0116   46.3238   14.0552 C.ar      1 MOL     0.0725
      2 C5         64.2082   47.6699   14.3738 C.ar      1 MOL     0.0009
      3 C6         64.6013   48.0259   15.6642 C.ar      1 MOL     0.0187
      4 C7         65.1922   47.3905   17.9486 C.2       1 MOL    -0.0112
      5 C8         65.7630   46.4684   18.7754 C.2       1 MOL     0.0163
      6 C10        65.1210   48.6205   18.4893 C.2       1 MOL     0.0538
      7 N12        63.6521   45.9588   12.8140 N.ar      1 MOL    -0.2334
      8 C13        63.4655   46.8729   11.8381 C.ar      1 MOL     0.1153
      9 C15        64.0189   48.6416   13.3908 C.ar      1 MOL     0.0138
     10 C14        63.6407   48.2372   12.1046 C.ar      1 MOL     0.0445
     11 N16        63.0919   46.4723   10.6230 N.pl3     1 MOL    -0.3432
     12 C3         64.2113   45.3471   15.0299 C.ar      1 MOL     0.0295
     13 C2         64.5982   45.7043   16.3239 C.ar      1 MOL     0.0108
     14 C1         64.7821   47.0475   16.6557 C.ar      1 MOL    -0.0171
     15 C11        66.1541   46.8611   19.9979 C.2       1 MOL     0.0459
     16 S9         65.7833   48.4919   20.0574 S.3       1 MOL    -0.1054
     17 H161       62.1158   46.4885   10.3638 H         1 MOL     0.1442
     18 H162       63.7847   46.1526    9.9614 H         1 MOL     0.1442
@<TRIPOS>BOND
     1    2    1 ar
     2    1    7 ar
     3    1   12 ar
     4    3    2 ar
     5    2    9 ar
     6   14    3 ar
     7    4    5 1 
     8    4    6 2 
     9    4   14 1 
    10    5   15 2 
    11    6   16 1 
    12    7    8 ar
    13    8   10 ar
    14    8   11 1 
    15    9   10 ar
    16   12   13 ar
    17   13   14 ar
    18   15   16 1 
    19   17   11 1 
    20   18   11 1 
@<TRIPOS>SUBSTRUCTURE
1 MOL         1
@<TRIPOS>MOLECULE
query molecule
   18    20     1     0     0
SMALL
NO_CHARGE

@<TRIPOS>ATOM
      1 C4         68.4760   50.4974   11.4130 C.ar      1 MOL     0.0725
      2 C5         69.8074   50.7678   11.7388 C.ar      1 MOL     0.0009
      3 C6         70.8193   50.4604   10.8288 C.ar      1 MOL     0.0187
      4 C7         71.5217   49.5640    8.6668 C.2       1 MOL    -0.0112
      5 C8         72.2461   50.5532    8.0696 C.2       1 MOL     0.0163
      6 C10        71.9081   48.3269    8.3049 C.2       1 MOL     0.0538
      7 N12        67.4858   50.8034   12.2669 N.ar      1 MOL    -0.2334
      8 C13        67.7400   51.3754   13.4631 C.ar      1 MOL     0.1153
      9 C15        70.1067   51.3536   12.9691 C.ar      1 MOL     0.0138
     10 C14        69.0577   51.6606   13.8445 C.ar      1 MOL     0.0445
     11 N16        66.7313   51.6482   14.2905 N.pl3     1 MOL    -0.3432
     12 C3         68.1696   49.9235   10.1799 C.ar      1 MOL     0.0295
     13 C2         69.1835   49.6093    9.2716 C.ar      1 MOL     0.0108
     14 C1         70.5176   49.8617    9.5944 C.ar      1 MOL    -0.0171
     15 C11        73.2098   50.2054    7.2024 C.2       1 MOL     0.0459
     16 S9         73.1807   48.5322    7.1859 S.3       1 MOL    -0.1054
     17 H161       66.2631   50.8991   14.7803 H         1 MOL     0.1442
     18 H162       66.4350   52.6039   14.4277 H         1 MOL     0.1442
@<TRIPOS>BOND
     1    2    1 ar
     2    1    7 ar
     3    1   12 ar
     4    3    2 ar
     5    2    9 ar
     6   14    3 ar
     7    4    5 1 
     8    4    6 2 
     9    4   14 1 
    10    5   15 2 
    11    6   16 1 
    12    7    8 ar
    13    8   10 ar
    14    8   11 1 
    15    9   10 ar
    16   12   13 ar
    17   13   14 ar
    18   15   16 1 
    19   17   11 1 
    20   18   11 1 
@<TRIPOS>SUBSTRUCTURE
1 MOL         1
@<TRIPOS>MOLECULE
query molecule
   18    20     1     0     0
SMALL
NO_CHARGE

@<TRIPOS>ATOM
      1 C4         69.2818   49.7275    9.5739 C.ar      1 MOL     0.0725
      2 C5         67.9913   50.1682    9.2697 C.ar      1 MOL     0.0009
      3 C6         67.6544   51.5086    9.4602 C.ar      1 MOL     0.0187
      4 C7         68.2715   53.7687   10.1549 C.2       1 MOL    -0.0112
      5 C8         68.8637   54.7405    9.4036 C.2       1 MOL     0.0163
      6 C10        67.3515   54.2445   11.0138 C.2       1 MOL     0.0538
      7 N12        69.6317   48.4457    9.3794 N.ar      1 MOL    -0.2334
      8 C13        68.7546   47.5433    8.8905 C.ar      1 MOL     0.1153
      9 C15        67.0578   49.2612    8.7676 C.ar      1 MOL     0.0138
     10 C14        67.4448   47.9291    8.5765 C.ar      1 MOL     0.0445
     11 N16        69.1349   46.2762    8.7279 N.pl3     1 MOL    -0.3432
     12 C3         70.2228   50.6317   10.0643 C.ar      1 MOL     0.0295
     13 C2         69.8832   51.9725   10.2615 C.ar      1 MOL     0.0108
     14 C1         68.5923   52.4188    9.9750 C.ar      1 MOL    -0.0171
     15 C11        68.5011   56.0167    9.6080 C.2       1 MOL     0.0459
     16 S9         67.3336   55.9385   10.8044 S.3       1 MOL    -0.1054
     17 H161       68.4449   45.5387    8.7211 H         1 MOL     0.1442
     18 H162       70.1131   46.0535    8.6114 H         1 MOL     0.1442
@<TRIPOS>BOND
     1    2    1 ar
     2    1    7 ar
     3    1   12 ar
     4    3    2 ar
     5    2    9 ar
     6   14    3 ar
     7    4    5 1 
     8    4    6 2 
     9    4   14 1 
    10    5   15 2 
    11    6   16 1 
    12    7    8 ar
    13    8   10 ar
    14    8   11 1 
    15    9   10 ar
    16   12   13 ar
    17   13   14 ar
    18   15   16 1 
    19   17   11 1 
    20   18   11 1 
@<TRIPOS>SUBSTRUCTURE
1 MOL         1
@<TRIPOS>MOLECULE
query molecule
   18    20     1     0     0
SMALL
NO_CHARGE

@<TRIPOS>ATOM
      1 C4         72.3223   49.3548    9.5598 C.ar      1 MOL     0.0725
      2 C5         71.7202   50.2373    8.6595 C.ar      1 MOL     0.0009
      3 C6         70.3927   50.6221    8.8497 C.ar      1 MOL     0.0187
      4 C7         68.3186   50.5069   10.1367 C.2       1 MOL    -0.0112
      5 C8         67.3213   50.0969    9.3018 C.2       1 MOL     0.0163
      6 C10        67.8800   51.2574   11.1637 C.2       1 MOL     0.0538
      7 N12        73.6046   48.9873    9.4054 N.ar      1 MOL    -0.2334
      8 C13        74.3508   49.4511    8.3803 C.ar      1 MOL     0.1153
      9 C15        72.4606   50.7320    7.5855 C.ar      1 MOL     0.0138
     10 C14        73.7949   50.3319    7.4431 C.ar      1 MOL     0.0445
     11 N16        75.6152   49.0493    8.2513 N.pl3     1 MOL    -0.3432
     12 C3         71.5913   48.8668   10.6420 C.ar      1 MOL     0.0295
     13 C2         70.2599   49.2466   10.8285 C.ar      1 MOL     0.0108
     14 C1         69.6453   50.1158    9.9259 C.ar      1 MOL    -0.0171
     15 C11        66.0649   50.4885    9.5661 C.2       1 MOL     0.0459
     16 S9         66.1912   51.4024   10.9623 S.3       1 MOL    -0.1054
     17 H161       76.3642   49.6075    8.6355 H         1 MOL     0.1442
     18 H162       75.8243   48.1866    7.7695 H         1 MOL     0.1442
@<TRIPOS>BOND
     1    2    1 ar
     2    1    7 ar
     3    1   12 ar
     4    3    2 ar
     5    2    9 ar
     6   14    3 ar
     7    4    5 1 
     8    4    6 2 
     9    4   14 1 
    10    5   15 2 
    11    6   16 1 
    12    7    8 ar
    13    8   10 ar
    14    8   11 1 
    15    9   10 ar
    16   12   13 ar
    17   13   14 ar
    18   15   16 1 
    19   17   11 1 
    20   18   11 1 
@<TRIPOS>SUBSTRUCTURE
1 MOL         1
@<TRIPOS>MOLECULE
query molecule
   18    20     1     0     0
SMALL
NO_CHARGE

@<TRIPOS>ATOM
      1 C4         70.3093   50.4372   11.9314 C.ar      1 MOL     0.0725
      2 C5         69.6862   49.6633   10.9492 C.ar      1 MOL     0.0009
      3 C6         68.3292   49.8456   10.6813 C.ar      1 MOL     0.0187
      4 C7         66.2171   50.9889   11.1321 C.2       1 MOL    -0.0112
      5 C8         65.2882   50.0348   11.4265 C.2       1 MOL     0.0163
      6 C10        65.6837   52.1125   10.6188 C.2       1 MOL     0.0538
      7 N12        71.6187   50.2907   12.1909 N.ar      1 MOL    -0.2334
      8 C13        72.3729   49.3944   11.5198 C.ar      1 MOL     0.1153
      9 C15        70.4346   48.7235   10.2399 C.ar      1 MOL     0.0138
     10 C14        71.7975   48.5862   10.5304 C.ar      1 MOL     0.0445
     11 N16        73.6656   49.2664   11.8184 N.pl3     1 MOL    -0.3432
     12 C3         69.5696   51.3867   12.6350 C.ar      1 MOL     0.0295
     13 C2         68.2091   51.5643   12.3715 C.ar      1 MOL     0.0108
     14 C1         67.5745   50.7852   11.4029 C.ar      1 MOL    -0.0171
     15 C11        63.9983   50.2951   11.1618 C.2       1 MOL     0.0459
     16 S9         64.0003   51.8443   10.5291 S.3       1 MOL    -0.1054
     17 H161       74.3601   49.3127   11.0864 H         1 MOL     0.1442
     18 H162       73.9508   49.1232   12.7766 H         1 MOL     0.1442
@<TRIPOS>BOND
     1    2    1 ar
     2    1    7 ar
     3    1   12 ar
     4    3    2 ar
     5    2    9 ar
     6   14    3 ar
     7    4    5 1 
     8    4    6 2 
     9    4   14 1 
    10    5   15 2 
    11    6   16 1 
    12    7    8 ar
    13    8   10 ar
    14    8   11 1 
    15    9   10 ar
    16   12   13 ar
    17   13   14 ar
    18   15   16 1 
    19   17   11 1 
    20   18   11 1 
@<TRIPOS>SUBSTRUCTURE
1 MOL         1
@<TRIPOS>MOLECULE
query molecule
   18    20     1     0     0
SMALL
NO_CHARGE

@<TRIPOS>ATOM
      1 C4         66.7555   50.0230    9.0109 C.ar      1 MOL     0.0725
      2 C5         66.0453   50.0524   10.2136 C.ar      1 MOL     0.0009
      3 C6         65.0403   49.1133   10.4477 C.ar      1 MOL     0.0187
      4 C7         63.7242   47.1919    9.7080 C.2       1 MOL    -0.0112
      5 C8         63.4595   46.7378   10.9664 C.2       1 MOL     0.0163
      6 C10        62.9166   46.6648    8.7696 C.2       1 MOL     0.0538
      7 N12        67.7394   50.9057    8.7743 N.ar      1 MOL    -0.2334
      8 C13        68.0722   51.8483    9.6817 C.ar      1 MOL     0.1153
      9 C15        66.3594   51.0166   11.1717 C.ar      1 MOL     0.0138
     10 C14        67.3869   51.9287   10.9012 C.ar      1 MOL     0.0445
     11 N16        69.0432   52.7177    9.4026 N.pl3     1 MOL    -0.3432
     12 C3         66.4546   49.0540    8.0547 C.ar      1 MOL     0.0295
     13 C2         65.4436   48.1181    8.2863 C.ar      1 MOL     0.0108
     14 C1         64.7184   48.1491    9.4783 C.ar      1 MOL    -0.0171
     15 C11        62.4807   45.8335   11.1270 C.2       1 MOL     0.0459
     16 S9         61.8745   45.5876    9.5867 S.3       1 MOL    -0.1054
     17 H161       68.8287   53.5738    8.9116 H         1 MOL     0.1442
     18 H162       69.9934   52.5203    9.6821 H         1 MOL     0.1442
@<TRIPOS>BOND
     1    2    1 ar
     2    1    7 ar
     3    1   12 ar
     4    3    2 ar
     5    2    9 ar
     6   14    3 ar
     7    4    5 1 
     8    4    6 2 
     9    4   14 1 
    10    5   15 2 
    11    6   16 1 
    12    7    8 ar
    13    8   10 ar
    14    8   11 1 
    15    9   10 ar
    16   12   13 ar
    17   13   14 ar
    18   15   16 1 
    19   17   11 1 
    20   18   11 1 
@<TRIPOS>SUBSTRUCTURE
1 MOL         1
@<TRIPOS>MOLECULE
query molecule
   18    20     1     0     0
SMALL
NO_CHARGE

@<TRIPOS>ATOM
      1 C4         71.1568   49.4641   10.0851 C.ar      1 MOL     0.0725
      2 C5         70.6626   49.9259   11.3076 C.ar      1 MOL     0.0009
      3 C6         69.3155   50.2692   11.4249 C.ar      1 MOL     0.0187
      4 C7         67.0955   50.5017   10.4302 C.2       1 MOL    -0.0112
      5 C8         66.1275   49.6459    9.9942 C.2       1 MOL     0.0163
      6 C10        66.6044   51.6205   10.9938 C.2       1 MOL     0.0538
      7 N12        72.4458   49.1101    9.9567 N.ar      1 MOL    -0.2334
      8 C13        73.3044   49.1910   10.9955 C.ar      1 MOL     0.1153
      9 C15        71.5235   50.0270   12.4008 C.ar      1 MOL     0.0138
     10 C14        72.8642   49.6554   12.2419 C.ar      1 MOL     0.0445
     11 N16        74.5805   48.8467   10.8236 N.pl3     1 MOL    -0.3432
     12 C3         70.2987   49.3490    8.9924 C.ar      1 MOL     0.0295
     13 C2         68.9512   49.6995    9.1080 C.ar      1 MOL     0.0108
     14 C1         68.4518   50.1762   10.3210 C.ar      1 MOL    -0.0171
     15 C11        64.8426   50.0045   10.1434 C.2       1 MOL     0.0459
     16 S9         64.9046   51.4972   10.8975 S.3       1 MOL    -0.1054
     17 H161       74.8803   47.9030   11.0230 H         1 MOL     0.1442
     18 H162       75.2478   49.5294   10.4939 H         1 MOL     0.1442
@<TRIPOS>BOND
     1    2    1 ar
     2    1    7 ar
     3    1   12 ar
     4    3    2 ar
     5    2    9 ar
     6   14    3 ar
     7    4    5 1 
     8    4    6 2 
     9    4   14 1 
    10    5   15 2 
    11    6   16 1 
    12    7    8 ar
    13    8   10 ar
    14    8   11 1 
    15    9   10 ar
    16   12   13 ar
    17   13   14 ar
    18   15   16 1 
    19   17   11 1 
    20   18   11 1 
@<TRIPOS>SUBSTRUCTURE
1 MOL         1
@<TRIPOS>MOLECULE
query molecule
   18    20     1     0     0
SMALL
NO_CHARGE

@<TRIPOS>ATOM
      1 C4         69.2728   50.2609   10.9206 C.ar      1 MOL     0.0725
      2 C5         69.0946   49.9837    9.5629 C.ar      1 MOL     0.0009
      3 C6         70.2019   49.7003    8.7627 C.ar      1 MOL     0.0187
      4 C7         72.6156   49.4118    8.5134 C.2       1 MOL    -0.0112
      5 C8         73.6277   50.3117    8.3539 C.2       1 MOL     0.0163
      6 C10        72.8383   48.2417    7.8874 C.2       1 MOL     0.0538
      7 N12        68.2185   50.5171   11.7118 N.ar      1 MOL    -0.2334
      8 C13        66.9587   50.5197   11.2263 C.ar      1 MOL     0.1153
      9 C15        67.8067   49.9832    9.0267 C.ar      1 MOL     0.0138
     10 C14        66.7231   50.2565    9.8705 C.ar      1 MOL     0.0445
     11 N16        65.9398   50.7957   12.0401 N.pl3     1 MOL    -0.3432
     12 C3         70.5563   50.2507   11.4649 C.ar      1 MOL     0.0295
     13 C2         71.6656   49.9737   10.6622 C.ar      1 MOL     0.0108
     14 C1         71.4990   49.7106    9.3017 C.ar      1 MOL    -0.0171
     15 C11        74.6825   49.9610    7.6016 C.2       1 MOL     0.0459
     16 S9         74.3484   48.3976    7.1068 S.3       1 MOL    -0.1054
     17 H161       65.7392   50.1887   12.8221 H         1 MOL     0.1442
     18 H162       65.3682   51.6118   11.8748 H         1 MOL     0.1442
@<TRIPOS>BOND
     1    2    1 ar
     2    1    7 ar
     3    1   12 ar
     4    3    2 ar
     5    2    9 ar
     6   14    3 ar
     7    4    5 1 
     8    4    6 2 
     9    4   14 1 
    10    5   15 2 
    11    6   16 1 
    12    7    8 ar
    13    8   10 ar
    14    8   11 1 
    15    9   10 ar
    16   12   13 ar
    17   13   14 ar
    18   15   16 1 
    19   17   11 1 
    20   18   11 1 
@<TRIPOS>SUBSTRUCTURE
1 MOL         1
@<TRIPOS>MOLECULE
query molecule
   18    20     1     0     0
SMALL
NO_CHARGE

@<TRIPOS>ATOM
      1 C4         65.5918   48.6672    9.0088 C.ar      1 MOL     0.0725
      2 C5         66.9620   48.4273    8.8785 C.ar      1 MOL     0.0009
      3 C6         67.8765   49.2812    9.4959 C.ar      1 MOL     0.0187
      4 C7         68.3430   51.2481   10.8689 C.2       1 MOL    -0.0112
      5 C8         68.7763   50.9969   12.1373 C.2       1 MOL     0.0163
      6 C10        68.9062   52.3394   10.3189 C.2       1 MOL     0.0538
      7 N12        64.6951   47.8463    8.4386 N.ar      1 MOL    -0.2334
      8 C13        65.0828   46.7702    7.7214 C.ar      1 MOL     0.1153
      9 C15        67.3980   47.3271    8.1397 C.ar      1 MOL     0.0138
     10 C14        66.4445   46.4871    7.5515 C.ar      1 MOL     0.0445
     11 N16        64.1626   45.9889    7.1562 N.pl3     1 MOL    -0.3432
     12 C3         65.1497   49.7579    9.7562 C.ar      1 MOL     0.0295
     13 C2         66.0656   50.6169   10.3686 C.ar      1 MOL     0.0108
     14 C1         67.4365   50.3941   10.2314 C.ar      1 MOL    -0.0171
     15 C11        69.6614   51.8414   12.6896 C.2       1 MOL     0.0459
     16 S9         69.9512   52.9860   11.5037 S.3       1 MOL    -0.1054
     17 H161       63.5313   45.4527    7.7342 H         1 MOL     0.1442
     18 H162       64.0964   45.9331    6.1499 H         1 MOL     0.1442
@<TRIPOS>BOND
     1    2    1 ar
     2    1    7 ar
     3    1   12 ar
     4    3    2 ar
     5    2    9 ar
     6   14    3 ar
     7    4    5 1 
     8    4    6 2 
     9    4   14 1 
    10    5   15 2 
    11    6   16 1 
    12    7    8 ar
    13    8   10 ar
    14    8   11 1 
    15    9   10 ar
    16   12   13 ar
    17   13   14 ar
    18   15   16 1 
    19   17   11 1 
    20   18   11 1 
@<TRIPOS>SUBSTRUCTURE
1 MOL         1
@<TRIPOS>MOLECULE
query molecule
   18    20     1     0     0
SMALL
NO_CHARGE

@<TRIPOS>ATOM
      1 C4         66.0598   49.2925    8.8437 C.ar      1 MOL     0.0725
      2 C5         65.5457   48.0683    9.2785 C.ar      1 MOL     0.0009
      3 C6         64.9323   47.9794   10.5284 C.ar      1 MOL     0.0187
      4 C7         64.2159   49.0307   12.6148 C.2       1 MOL    -0.0112
      5 C8         64.7131   49.6998   13.6940 C.2       1 MOL     0.0163
      6 C10        63.0767   48.3648   12.8782 C.2       1 MOL     0.0538
      7 N12        66.6365   49.4035    7.6361 N.ar      1 MOL    -0.2334
      8 C13        66.7429   48.3432    6.8071 C.ar      1 MOL     0.1153
      9 C15        65.6434   46.9505    8.4494 C.ar      1 MOL     0.0138
     10 C14        66.2521   47.0898    7.1960 C.ar      1 MOL     0.0445
     11 N16        67.3377   48.4896    5.6234 N.pl3     1 MOL    -0.3432
     12 C3         65.9541   50.4159    9.6625 C.ar      1 MOL     0.0295
     13 C2         65.3460   50.3252   10.9170 C.ar      1 MOL     0.0108
     14 C1         64.8433   49.1033   11.3664 C.ar      1 MOL    -0.0171
     15 C11        64.0568   49.6079   14.8613 C.2       1 MOL     0.0459
     16 S9         62.7370   48.6340   14.5292 S.3       1 MOL    -0.1054
     17 H161       68.3418   48.5865    5.5712 H         1 MOL     0.1442
     18 H162       66.7845   48.5037    4.7785 H         1 MOL     0.1442
@<TRIPOS>BOND
     1    2    1 ar
     2    1    7 ar
     3    1   12 ar
     4    3    2 ar
     5    2    9 ar
     6   14    3 ar
     7    4    5 1 
     8    4    6 2 
     9    4   14 1 
    10    5   15 2 
    11    6   16 1 
    12    7    8 ar
    13    8   10 ar
    14    8   11 1 
    15    9   10 ar
    16   12   13 ar
    17   13   14 ar
    18   15   16 1 
    19   17   11 1 
    20   18   11 1 
@<TRIPOS>SUBSTRUCTURE
1 MOL         1
@<TRIPOS>MOLECULE
query molecule
   18    20     1     0     0
SMALL
NO_CHARGE

@<TRIPOS>ATOM
      1 C4         68.1806   49.9550   10.1411 C.ar      1 MOL     0.0725
      2 C5         68.6407   49.0969    9.1391 C.ar      1 MOL     0.0009
      3 C6         69.9867   48.7315    9.1043 C.ar      1 MOL     0.0187
      4 C7         72.2406   48.8612   10.0396 C.2       1 MOL    -0.0112
      5 C8         73.0142   49.0562    8.9337 C.2       1 MOL     0.0163
      6 C10        72.9166   48.3366   11.0781 C.2       1 MOL     0.0538
      7 N12        66.8853   50.3033   10.2035 N.ar      1 MOL    -0.2334
      8 C13        65.9889   49.8432    9.3048 C.ar      1 MOL     0.1153
      9 C15        67.7426   48.6068    8.1906 C.ar      1 MOL     0.0138
     10 C14        66.3974   48.9867    8.2740 C.ar      1 MOL     0.0445
     11 N16        64.7150   50.2258    9.3900 N.pl3     1 MOL    -0.3432
     12 C3         69.0709   50.4382   11.0991 C.ar      1 MOL     0.0295
     13 C2         70.4201   50.0778   11.0601 C.ar      1 MOL     0.0108
     14 C1         70.8919   49.2333   10.0540 C.ar      1 MOL    -0.0171
     15 C11        74.3065   48.6969    8.9860 C.2       1 MOL     0.0459
     16 S9         74.5193   48.1069   10.5375 S.3       1 MOL    -0.1054
     17 H161       64.0287   49.6088    9.8006 H         1 MOL     0.1442
     18 H162       64.4358   51.1327    9.0441 H         1 MOL     0.1442
@<TRIPOS>BOND
     1    2    1 ar
     2    1    7 ar
     3    1   12 ar
     4    3    2 ar
     5    2    9 ar
     6   14    3 ar
     7    4    5 1 
     8    4    6 2 
     9    4   14 1 
    10    5   15 2 
    11    6   16 1 
    12    7    8 ar
    13    8   10 ar
    14    8   11 1 
    15    9   10 ar
    16   12   13 ar
    17   13   14 ar
    18   15   16 1 
    19   17   11 1 
    20   18   11 1 
@<TRIPOS>SUBSTRUCTURE
1 MOL         1
@<TRIPOS>MOLECULE
query molecule
   18    20     1     0     0
SMALL
NO_CHARGE

@<TRIPOS>ATOM
      1 C4         69.3285   50.8413   11.9292 C.ar      1 MOL     0.0725
      2 C5         70.2796   50.0136   11.3274 C.ar      1 MOL     0.0009
      3 C6         69.9432   49.2901   10.1829 C.ar      1 MOL     0.0187
      4 C7         68.3061   48.6596    8.4818 C.2       1 MOL    -0.0112
      5 C8         68.1742   49.2922    7.2809 C.2       1 MOL     0.0163
      6 C10        68.1194   47.3291    8.4074 C.2       1 MOL     0.0538
      7 N12        69.6381   51.5607   13.0199 N.ar      1 MOL    -0.2334
      8 C13        70.8690   51.5073   13.5719 C.ar      1 MOL     0.1153
      9 C15        71.5602   49.9303   11.8746 C.ar      1 MOL     0.0138
     10 C14        71.8588   50.6872   13.0143 C.ar      1 MOL     0.0445
     11 N16        71.1325   52.2233   14.6649 N.pl3     1 MOL    -0.3432
     12 C3         68.0508   50.9383   11.3798 C.ar      1 MOL     0.0295
     13 C2         67.7119   50.2084   10.2378 C.ar      1 MOL     0.0108
     14 C1         68.6506   49.3672    9.6385 C.ar      1 MOL    -0.0171
     15 C11        67.8610   48.5574    6.2022 C.2       1 MOL     0.0459
     16 S9         67.7582   46.9881    6.7743 S.3       1 MOL    -0.1054
     17 H161       72.0715   52.2514   15.0359 H         1 MOL     0.1442
     18 H162       70.3932   52.7376   15.1220 H         1 MOL     0.1442
@<TRIPOS>BOND
     1    2    1 ar
     2    1    7 ar
     3    1   12 ar
     4    3    2 ar
     5    2    9 ar
     6   14    3 ar
     7    4    5 1 
     8    4    6 2 
     9    4   14 1 
    10    5   15 2 
    11    6   16 1 
    12    7    8 ar
    13    8   10 ar
    14    8   11 1 
    15    9   10 ar
    16   12   13 ar
    17   13   14 ar
    18   15   16 1 
    19   17   11 1 
    20   18   11 1 
@<TRIPOS>SUBSTRUCTURE
1 MOL         1
@<TRIPOS>MOLECULE
query molecule
   18    20     1     0     0
SMALL
NO_CHARGE

@<TRIPOS>ATOM
      1 C4         69.0386   49.7883   10.0086 C.ar      1 MOL     0.0725
      2 C5         70.0465   50.6570    9.5826 C.ar      1 MOL     0.0009
      3 C6         69.8314   52.0352    9.6128 C.ar      1 MOL     0.0187
      4 C7         68.3819   53.9417   10.0981 C.2       1 MOL    -0.0112
      5 C8         67.4737   54.4790   10.9619 C.2       1 MOL     0.0163
      6 C10        69.0385   54.8647    9.3719 C.2       1 MOL     0.0538
      7 N12        69.2326   48.4596   10.0056 N.ar      1 MOL    -0.2334
      8 C13        70.3983   47.9198    9.5903 C.ar      1 MOL     0.1153
      9 C15        71.2620   50.1330    9.1419 C.ar      1 MOL     0.0138
     10 C14        71.4400   48.7441    9.1446 C.ar      1 MOL     0.0445
     11 N16        70.5462   46.5951    9.5858 N.pl3     1 MOL    -0.3432
     12 C3         67.8262   50.3064   10.4618 C.ar      1 MOL     0.0295
     13 C2         67.6084   51.6862   10.4855 C.ar      1 MOL     0.0108
     14 C1         68.6037   52.5612   10.0475 C.ar      1 MOL    -0.0171
     15 C11        67.3184   55.8121   10.9788 C.2       1 MOL     0.0459
     16 S9         68.4107   56.3799    9.8452 S.3       1 MOL    -0.1054
     17 H161       71.4426   46.1878    9.3605 H         1 MOL     0.1442
     18 H162       69.7620   45.9986    9.8078 H         1 MOL     0.1442
@<TRIPOS>BOND
     1    2    1 ar
     2    1    7 ar
     3    1   12 ar
     4    3    2 ar
     5    2    9 ar
     6   14    3 ar
     7    4    5 1 
     8    4    6 2 
     9    4   14 1 
    10    5   15 2 
    11    6   16 1 
    12    7    8 ar
    13    8   10 ar
    14    8   11 1 
    15    9   10 ar
    16   12   13 ar
    17   13   14 ar
    18   15   16 1 
    19   17   11 1 
    20   18   11 1 
@<TRIPOS>SUBSTRUCTURE
1 MOL         1
@<TRIPOS>MOLECULE
query molecule
   18    20     1     0     0
SMALL
NO_CHARGE

@<TRIPOS>ATOM
      1 C4         64.3149   46.4810   14.9792 C.ar      1 MOL     0.0725
      2 C5         64.4412   47.8434   15.2619 C.ar      1 MOL     0.0009
      3 C6         64.7727   48.2551   16.5531 C.ar      1 MOL     0.0187
      4 C7         65.3098   47.7151   18.8750 C.2       1 MOL    -0.0112
      5 C8         65.9552   46.8663   19.7251 C.2       1 MOL     0.0163
      6 C10        65.1046   48.9385   19.3962 C.2       1 MOL     0.0538
      7 N12        64.0156   46.0634   13.7386 N.ar      1 MOL    -0.2334
      8 C13        63.8238   46.9388   12.7287 C.ar      1 MOL     0.1153
      9 C15        64.2444   48.7760   14.2431 C.ar      1 MOL     0.0138
     10 C14        63.9298   48.3169   12.9581 C.ar      1 MOL     0.0445
     11 N16        63.5111   46.4858   11.5148 N.pl3     1 MOL    -0.3432
     12 C3         64.5225   45.5438   15.9902 C.ar      1 MOL     0.0295
     13 C2         64.8476   45.9564   17.2848 C.ar      1 MOL     0.0108
     14 C1         64.9610   47.3157   17.5803 C.ar      1 MOL    -0.0171
     15 C11        66.2816   47.3124   20.9483 C.2       1 MOL     0.0459
     16 S9         65.7468   48.8978   20.9773 S.3       1 MOL    -0.1054
     17 H161       64.2238   46.4166   10.8025 H         1 MOL     0.1442
     18 H162       62.5614   46.2116   11.3073 H         1 MOL     0.1442
@<TRIPOS>BOND
     1    2    1 ar
     2    1    7 ar
     3    1   12 ar
     4    3    2 ar
     5    2    9 ar
     6   14    3 ar
     7    4    5 1 
     8    4    6 2 
     9    4   14 1 
    10    5   15 2 
    11    6   16 1 
    12    7    8 ar
    13    8   10 ar
    14    8   11 1 
    15    9   10 ar
    16   12   13 ar
    17   13   14 ar
    18   15   16 1 
    19   17   11 1 
    20   18   11 1 
@<TRIPOS>SUBSTRUCTURE
1 MOL         1
@<TRIPOS>MOLECULE
query molecule
   18    20     1     0     0
SMALL
NO_CHARGE

@<TRIPOS>ATOM
      1 C4         64.2678   49.7856   11.7191 C.ar      1 MOL     0.0725
      2 C5         65.0825   50.0305   12.8273 C.ar      1 MOL     0.0009
      3 C6         66.2920   50.7059   12.6620 C.ar      1 MOL     0.0187
      4 C7         67.9150   51.8182   11.2128 C.2       1 MOL    -0.0112
      5 C8         69.0874   51.3346   11.7141 C.2       1 MOL     0.0163
      6 C10        68.0621   52.9630   10.5212 C.2       1 MOL     0.0538
      7 N12        63.0909   49.1544   11.8598 N.ar      1 MOL    -0.2334
      8 C13        62.6582   48.7338   13.0675 C.ar      1 MOL     0.1153
      9 C15        64.6686   49.6048   14.0898 C.ar      1 MOL     0.0138
     10 C14        63.4391   48.9456   14.2113 C.ar      1 MOL     0.0445
     11 N16        61.4921   48.0954   13.1637 N.pl3     1 MOL    -0.3432
     12 C3         64.6701   50.2196   10.4567 C.ar      1 MOL     0.0295
     13 C2         65.8846   50.8898   10.2902 C.ar      1 MOL     0.0108
     14 C1         66.7122   51.1255   11.3890 C.ar      1 MOL    -0.0171
     15 C11        70.2124   52.0336   11.4963 C.2       1 MOL     0.0459
     16 S9         69.7229   53.3517   10.5889 S.3       1 MOL    -0.1054
     17 H161       60.7111   48.3812   12.5906 H         1 MOL     0.1442
     18 H162       61.3894   47.3258   13.8097 H         1 MOL     0.1442
@<TRIPOS>BOND
     1    2    1 ar
     2    1    7 ar
     3    1   12 ar
     4    3    2 ar
     5    2    9 ar
     6   14    3 ar
     7    4    5 1 
     8    4    6 2 
     9    4   14 1 
    10    5   15 2 
    11    6   16 1 
    12    7    8 ar
    13    8   10 ar
    14    8   11 1 
    15    9   10 ar
    16   12   13 ar
    17   13   14 ar
    18   15   16 1 
    19   17   11 1 
    20   18   11 1 
@<TRIPOS>SUBSTRUCTURE
1 MOL         1
@<TRIPOS>MOLECULE
query molecule
   18    20     1     0     0
SMALL
NO_CHARGE

@<TRIPOS>ATOM
      1 C4         74.4005   47.8040    6.4660 C.ar      1 MOL     0.0725
      2 C5         74.8816   46.4926    6.4930 C.ar      1 MOL     0.0009
      3 C6         75.5543   46.0248    7.6222 C.ar      1 MOL     0.0187
      4 C7         76.4318   46.4018    9.8715 C.2       1 MOL    -0.0112
      5 C8         75.9770   45.3133   10.5557 C.2       1 MOL     0.0163
      6 C10        77.5637   46.9190   10.3832 C.2       1 MOL     0.0538
      7 N12        73.7336   48.2674    5.3966 N.ar      1 MOL    -0.2334
      8 C13        73.5092   47.4896    4.3161 C.ar      1 MOL     0.1153
      9 C15        74.6721   45.6628    5.3913 C.ar      1 MOL     0.0138
     10 C14        73.9769   46.1692    4.2862 C.ar      1 MOL     0.0445
     11 N16        72.8582   47.9915    3.2669 N.pl3     1 MOL    -0.3432
     12 C3         74.5959   48.6342    7.5689 C.ar      1 MOL     0.0295
     13 C2         75.2757   48.1679    8.6968 C.ar      1 MOL     0.0108
     14 C1         75.7732   46.8642    8.7270 C.ar      1 MOL    -0.0171
     15 C11        76.6619   44.9047   11.6353 C.2       1 MOL     0.0459
     16 S9         77.9523   45.9647   11.7441 S.3       1 MOL    -0.1054
     17 H161       72.7213   47.4273    2.4403 H         1 MOL     0.1442
     18 H162       72.5017   48.9359    3.2983 H         1 MOL     0.1442
@<TRIPOS>BOND
     1    2    1 ar
     2    1    7 ar
     3    1   12 ar
     4    3    2 ar
     5    2    9 ar
     6   14    3 ar
     7    4    5 1 
     8    4    6 2 
     9    4   14 1 
    10    5   15 2 
    11    6   16 1 
    12    7    8 ar
    13    8   10 ar
    14    8   11 1 
    15    9   10 ar
    16   12   13 ar
    17   13   14 ar
    18   15   16 1 
    19   17   11 1 
    20   18   11 1 
@<TRIPOS>SUBSTRUCTURE
1 MOL         1
@<TRIPOS>MOLECULE
query molecule
   18    20     1     0     0
SMALL
NO_CHARGE

@<TRIPOS>ATOM
      1 C4         64.6961   47.7045   16.3342 C.ar      1 MOL     0.0725
      2 C5         63.9791   48.5365   15.4707 C.ar      1 MOL     0.0009
      3 C6         63.6274   49.8226   15.8813 C.ar      1 MOL     0.0187
      4 C7         63.6353   51.5790   17.5804 C.2       1 MOL    -0.0112
      5 C8         64.4241   52.6460   17.2661 C.2       1 MOL     0.0163
      6 C10        62.5284   51.9173   18.2665 C.2       1 MOL     0.0538
      7 N12        65.0609   46.4703   15.9509 N.ar      1 MOL    -0.2334
      8 C13        64.7469   45.9918   14.7281 C.ar      1 MOL     0.1153
      9 C15        63.6332   48.0721   14.2014 C.ar      1 MOL     0.0138
     10 C14        64.0217   46.7804   13.8252 C.ar      1 MOL     0.0445
     11 N16        65.1121   44.7550   14.3911 N.pl3     1 MOL    -0.3432
     12 C3         65.0554   48.1673   17.5993 C.ar      1 MOL     0.0295
     13 C2         64.6972   49.4527   18.0130 C.ar      1 MOL     0.0108
     14 C1         63.9678   50.2856   17.1631 C.ar      1 MOL    -0.0171
     15 C11        64.0435   53.8657   17.6775 C.2       1 MOL     0.0459
     16 S9         62.5979   53.6094   18.4808 S.3       1 MOL    -0.1054
     17 H161       66.0911   44.5254   14.2968 H         1 MOL     0.1442
     18 H162       64.4097   44.0473   14.2300 H         1 MOL     0.1442
@<TRIPOS>BOND
     1    2    1 ar
     2    1    7 ar
     3    1   12 ar
     4    3    2 ar
     5    2    9 ar
     6   14    3 ar
     7    4    5 1 
     8    4    6 2 
     9    4   14 1 
    10    5   15 2 
    11    6   16 1 
    12    7    8 ar
    13    8   10 ar
    14    8   11 1 
    15    9   10 ar
    16   12   13 ar
    17   13   14 ar
    18   15   16 1 
    19   17   11 1 
    20   18   11 1 
@<TRIPOS>SUBSTRUCTURE
1 MOL         1
@<TRIPOS>MOLECULE
query molecule
   18    20     1     0     0
SMALL
NO_CHARGE

@<TRIPOS>ATOM
      1 C4         65.4455   50.1994   13.4258 C.ar      1 MOL     0.0725
      2 C5         65.3417   49.9962   12.0474 C.ar      1 MOL     0.0009
      3 C6         66.3391   50.4782   11.1992 C.ar      1 MOL     0.0187
      4 C7         68.4537   51.6591   10.8742 C.2       1 MOL    -0.0112
      5 C8         68.6335   52.9953   10.6700 C.2       1 MOL     0.0163
      6 C10        69.3600   50.8952   10.2374 C.2       1 MOL     0.0538
      7 N12        64.5062   49.7266   14.2608 N.ar      1 MOL    -0.2334
      8 C13        63.4341   49.0466   13.8012 C.ar      1 MOL     0.1153
      9 C15        64.2441   49.3022   11.5376 C.ar      1 MOL     0.0138
     10 C14        63.2756   48.8216   12.4274 C.ar      1 MOL     0.0445
     11 N16        62.5143   48.6083   14.6605 N.pl3     1 MOL    -0.3432
     12 C3         66.5463   50.8814   13.9424 C.ar      1 MOL     0.0295
     13 C2         67.5415   51.3700   13.0923 C.ar      1 MOL     0.0108
     14 C1         67.4388   51.1853   11.7128 C.ar      1 MOL    -0.0171
     15 C11        69.6363   53.3906    9.8702 C.2       1 MOL     0.0459
     16 S9         70.3792   51.9703    9.3893 S.3       1 MOL    -0.1054
     17 H161       62.7639   47.9281   15.3642 H         1 MOL     0.1442
     18 H162       61.5676   48.9563   14.6079 H         1 MOL     0.1442
@<TRIPOS>BOND
     1    2    1 ar
     2    1    7 ar
     3    1   12 ar
     4    3    2 ar
     5    2    9 ar
     6   14    3 ar
     7    4    5 1 
     8    4    6 2 
     9    4   14 1 
    10    5   15 2 
    11    6   16 1 
    12    7    8 ar
    13    8   10 ar
    14    8   11 1 
    15    9   10 ar
    16   12   13 ar
    17   13   14 ar
    18   15   16 1 
    19   17   11 1 
    20   18   11 1 
@<TRIPOS>SUBSTRUCTURE
1 MOL         1
@<TRIPOS>MOLECULE
query molecule
   18    20     1     0     0
SMALL
NO_CHARGE

@<TRIPOS>ATOM
      1 C4         62.5662   52.3850   17.8014 C.ar      1 MOL     0.0725
      2 C5         63.8775   52.3043   17.3260 C.ar      1 MOL     0.0009
      3 C6         64.3819   51.0788   16.8899 C.ar      1 MOL     0.0187
      4 C7         64.0819   48.6865   16.4924 C.2       1 MOL    -0.0112
      5 C8         64.4331   47.7038   17.3703 C.2       1 MOL     0.0163
      6 C10        64.2132   48.3227   15.2037 C.2       1 MOL     0.0538
      7 N12        62.0555   53.5586   18.2076 N.ar      1 MOL    -0.2334
      8 C13        62.7867   54.6930   18.1749 C.ar      1 MOL     0.1153
      9 C15        64.6632   53.4563   17.2835 C.ar      1 MOL     0.0138
     10 C14        64.1101   54.6680   17.7156 C.ar      1 MOL     0.0445
     11 N16        62.2497   55.8354   18.6031 N.pl3     1 MOL    -0.3432
     12 C3         61.7719   51.2396   17.8347 C.ar      1 MOL     0.0295
     13 C2         62.2794   50.0111   17.4044 C.ar      1 MOL     0.0108
     14 C1         63.5930   49.9178   16.9423 C.ar      1 MOL    -0.0171
     15 C11        64.8774   46.5363   16.8789 C.2       1 MOL     0.0459
     16 S9         64.8118   46.7241   15.2173 S.3       1 MOL    -0.1054
     17 H161       61.4422   56.2207   18.1345 H         1 MOL     0.1442
     18 H162       62.6503   56.3157   19.3961 H         1 MOL     0.1442
@<TRIPOS>BOND
     1    2    1 ar
     2    1    7 ar
     3    1   12 ar
     4    3    2 ar
     5    2    9 ar
     6   14    3 ar
     7    4    5 1 
     8    4    6 2 
     9    4   14 1 
    10    5   15 2 
    11    6   16 1 
    12    7    8 ar
    13    8   10 ar
    14    8   11 1 
    15    9   10 ar
    16   12   13 ar
    17   13   14 ar
    18   15   16 1 
    19   17   11 1 
    20   18   11 1 
@<TRIPOS>SUBSTRUCTURE
1 MOL         1
@<TRIPOS>MOLECULE
query molecule
   18    20     1     0     0
SMALL
NO_CHARGE

@<TRIPOS>ATOM
      1 C4         64.3391   48.2606   14.5991 C.ar      1 MOL     0.0725
      2 C5         64.2323   46.8743   14.4627 C.ar      1 MOL     0.0009
      3 C6         63.7957   46.3288   13.2551 C.ar      1 MOL     0.0187
      4 C7         63.0181   46.6231   10.9572 C.2       1 MOL    -0.0112
      5 C8         63.8995   46.4039    9.9400 C.2       1 MOL     0.0163
      6 C10        61.7627   46.2342   10.6687 C.2       1 MOL     0.0538
      7 N12        64.7756   48.8047   15.7465 N.ar      1 MOL    -0.2334
      8 C13        65.1206   48.0374   16.8025 C.ar      1 MOL     0.1153
      9 C15        64.5753   46.0515   15.5358 C.ar      1 MOL     0.0138
     10 C14        65.0247   46.6418   16.7235 C.ar      1 MOL     0.0445
     11 N16        65.5329   48.6158   17.9303 N.pl3     1 MOL    -0.3432
     12 C3         64.0096   49.0876   13.5262 C.ar      1 MOL     0.0295
     13 C2         63.5658   48.5416   12.3192 C.ar      1 MOL     0.0108
     14 C1         63.4413   47.1586   12.1785 C.ar      1 MOL    -0.0171
     15 C11        63.4381   45.8697    8.7983 C.2       1 MOL     0.0459
     16 S9         61.8054   45.6270    9.0740 S.3       1 MOL    -0.1054
     17 H161       65.4464   48.1266   18.8097 H         1 MOL     0.1442
     18 H162       65.9320   49.5433   17.9056 H         1 MOL     0.1442
@<TRIPOS>BOND
     1    2    1 ar
     2    1    7 ar
     3    1   12 ar
     4    3    2 ar
     5    2    9 ar
     6   14    3 ar
     7    4    5 1 
     8    4    6 2 
     9    4   14 1 
    10    5   15 2 
    11    6   16 1 
    12    7    8 ar
    13    8   10 ar
    14    8   11 1 
    15    9   10 ar
    16   12   13 ar
    17   13   14 ar
    18   15   16 1 
    19   17   11 1 
    20   18   11 1 
@<TRIPOS>SUBSTRUCTURE
1 MOL         1
@<TRIPOS>MOLECULE
query molecule
   18    20     1     0     0
SMALL
NO_CHARGE

@<TRIPOS>ATOM
      1 C4         67.4667   46.2424    7.5062 C.ar      1 MOL     0.0725
      2 C5         68.8592   46.1549    7.4339 C.ar      1 MOL     0.0009
      3 C6         69.4886   44.9292    7.6533 C.ar      1 MOL     0.0187
      4 C7         69.3576   42.5451    8.1731 C.2       1 MOL    -0.0112
      5 C8         68.8054   41.6094    8.9973 C.2       1 MOL     0.0163
      6 C10        70.4894   42.1291    7.5761 C.2       1 MOL     0.0538
      7 N12        66.8406   47.4084    7.2793 N.ar      1 MOL    -0.2334
      8 C13        67.5295   48.5301    6.9793 C.ar      1 MOL     0.1153
      9 C15        69.6029   47.2959    7.1314 C.ar      1 MOL     0.0138
     10 C14        68.9282   48.5013    6.9021 C.ar      1 MOL     0.0445
     11 N16        66.8728   49.6724    6.7779 N.pl3     1 MOL    -0.3432
     12 C3         66.7173   45.1030    7.7959 C.ar      1 MOL     0.0295
     13 C2         67.3480   43.8771    8.0224 C.ar      1 MOL     0.0108
     14 C1         68.7394   43.7832    7.9674 C.ar      1 MOL    -0.0171
     15 C11        69.4344   40.4322    9.1401 C.2       1 MOL     0.0459
     16 S9         70.7772   40.5467    8.1478 S.3       1 MOL    -0.1054
     17 H161       66.6965   49.9944    5.8369 H         1 MOL     0.1442
     18 H162       66.5513   50.2159    7.5661 H         1 MOL     0.1442
@<TRIPOS>BOND
     1    2    1 ar
     2    1    7 ar
     3    1   12 ar
     4    3    2 ar
     5    2    9 ar
     6   14    3 ar
     7    4    5 1 
     8    4    6 2 
     9    4   14 1 
    10    5   15 2 
    11    6   16 1 
    12    7    8 ar
    13    8   10 ar
    14    8   11 1 
    15    9   10 ar
    16   12   13 ar
    17   13   14 ar
    18   15   16 1 
    19   17   11 1 
    20   18   11 1 
@<TRIPOS>SUBSTRUCTURE
1 MOL         1
@<TRIPOS>MOLECULE
query molecule
   18    20     1     0     0
SMALL
NO_CHARGE

@<TRIPOS>ATOM
      1 C4         63.8659   47.8585   10.3019 C.ar      1 MOL     0.0725
      2 C5         63.5741   46.5240   10.5952 C.ar      1 MOL     0.0009
      3 C6         63.4978   46.1078   11.9246 C.ar      1 MOL     0.0187
      4 C7         63.6417   46.6097   14.3119 C.2       1 MOL    -0.0112
      5 C8         64.7519   46.2455   15.0152 C.2       1 MOL     0.0163
      6 C10        62.5131   46.5813   15.0439 C.2       1 MOL     0.0538
      7 N12        63.9248   48.2834    9.0294 N.ar      1 MOL    -0.2334
      8 C13        63.7097   47.4417    7.9960 C.ar      1 MOL     0.1153
      9 C15        63.3515   45.6257    9.5513 C.ar      1 MOL     0.0138
     10 C14        63.4216   46.0911    8.2325 C.ar      1 MOL     0.0445
     11 N16        63.7942   47.8978    6.7464 N.pl3     1 MOL    -0.3432
     12 C3         64.0771   48.7638   11.3410 C.ar      1 MOL     0.0295
     13 C2         64.0075   48.3454   12.6721 C.ar      1 MOL     0.0108
     14 C1         63.7317   47.0111   12.9747 C.ar      1 MOL    -0.0171
     15 C11        64.6056   45.8884   16.3008 C.2       1 MOL     0.0459
     16 S9         62.9682   46.0561   16.6031 S.3       1 MOL    -0.1054
     17 H161       62.9940   48.3369    6.3139 H         1 MOL     0.1442
     18 H162       64.6583   47.8044    6.2320 H         1 MOL     0.1442
@<TRIPOS>BOND
     1    2    1 ar
     2    1    7 ar
     3    1   12 ar
     4    3    2 ar
     5    2    9 ar
     6   14    3 ar
     7    4    5 1 
     8    4    6 2 
     9    4   14 1 
    10    5   15 2 
    11    6   16 1 
    12    7    8 ar
    13    8   10 ar
    14    8   11 1 
    15    9   10 ar
    16   12   13 ar
    17   13   14 ar
    18   15   16 1 
    19   17   11 1 
    20   18   11 1 
@<TRIPOS>SUBSTRUCTURE
1 MOL         1
@<TRIPOS>MOLECULE
query molecule
   18    20     1     0     0
SMALL
NO_CHARGE

@<TRIPOS>ATOM
      1 C4         73.0230   47.3694   10.2998 C.ar      1 MOL     0.0725
      2 C5         73.2695   48.6109    9.7083 C.ar      1 MOL     0.0009
      3 C6         73.5018   48.6899    8.3349 C.ar      1 MOL     0.0187
      4 C7         73.7269   47.5997    6.1596 C.2       1 MOL    -0.0112
      5 C8         74.6198   48.4825    5.6276 C.2       1 MOL     0.0163
      6 C10        73.1443   46.8099    5.2391 C.2       1 MOL     0.0538
      7 N12        72.7780   47.2742   11.6166 N.ar      1 MOL    -0.2334
      8 C13        72.7651   48.3661   12.4106 C.ar      1 MOL     0.1153
      9 C15        73.2690   49.7595   10.5001 C.ar      1 MOL     0.0138
     10 C14        73.0144   49.6351   11.8715 C.ar      1 MOL     0.0445
     11 N16        72.5351   48.2285   13.7162 N.pl3     1 MOL    -0.3432
     12 C3         73.0099   46.2194    9.5117 C.ar      1 MOL     0.0295
     13 C2         73.2494   46.2978    8.1375 C.ar      1 MOL     0.0108
     14 C1         73.5117   47.5316    7.5403 C.ar      1 MOL    -0.0171
     15 C11        74.7980   48.4882    4.2972 C.2       1 MOL     0.0459
     16 S9         73.7818   47.2861    3.7289 S.3       1 MOL    -0.1054
     17 H161       71.6354   48.4805   14.0999 H         1 MOL     0.1442
     18 H162       73.2604   47.8721   14.3220 H         1 MOL     0.1442
@<TRIPOS>BOND
     1    2    1 ar
     2    1    7 ar
     3    1   12 ar
     4    3    2 ar
     5    2    9 ar
     6   14    3 ar
     7    4    5 1 
     8    4    6 2 
     9    4   14 1 
    10    5   15 2 
    11    6   16 1 
    12    7    8 ar
    13    8   10 ar
    14    8   11 1 
    15    9   10 ar
    16   12   13 ar
    17   13   14 ar
    18   15   16 1 
    19   17   11 1 
    20   18   11 1 
@<TRIPOS>SUBSTRUCTURE
1 MOL         1
@<TRIPOS>MOLECULE
query molecule
   18    20     1     0     0
SMALL
NO_CHARGE

@<TRIPOS>ATOM
      1 C4         66.9257   48.1801    8.1502 C.ar      1 MOL     0.0725
      2 C5         67.8834   47.1684    8.2556 C.ar      1 MOL     0.0009
      3 C6         69.1851   47.4849    8.6456 C.ar      1 MOL     0.0187
      4 C7         70.8489   49.1419    9.3219 C.2       1 MOL    -0.0112
      5 C8         71.7651   49.6275    8.4362 C.2       1 MOL     0.0163
      6 C10        71.3129   49.0673   10.5827 C.2       1 MOL     0.0538
      7 N12        65.6626   47.8938    7.7953 N.ar      1 MOL    -0.2334
      8 C13        65.2772   46.6282    7.5260 C.ar      1 MOL     0.1153
      9 C15        67.5209   45.8499    7.9794 C.ar      1 MOL     0.0138
     10 C14        66.1989   45.5760    7.6078 C.ar      1 MOL     0.0445
     11 N16        64.0186   46.3866    7.1600 N.pl3     1 MOL    -0.3432
     12 C3         67.2787   49.4980    8.4370 C.ar      1 MOL     0.0295
     13 C2         68.5839   49.8158    8.8207 C.ar      1 MOL     0.0108
     14 C1         69.5513   48.8142    8.9140 C.ar      1 MOL    -0.0171
     15 C11        72.9884   49.9427    8.8900 C.2       1 MOL     0.0459
     16 S9         72.9291   49.6142   10.5299 S.3       1 MOL    -0.1054
     17 H161       63.8147   46.0943    6.2150 H         1 MOL     0.1442
     18 H162       63.2687   46.4959    7.8276 H         1 MOL     0.1442
@<TRIPOS>BOND
     1    2    1 ar
     2    1    7 ar
     3    1   12 ar
     4    3    2 ar
     5    2    9 ar
     6   14    3 ar
     7    4    5 1 
     8    4    6 2 
     9    4   14 1 
    10    5   15 2 
    11    6   16 1 
    12    7    8 ar
    13    8   10 ar
    14    8   11 1 
    15    9   10 ar
    16   12   13 ar
    17   13   14 ar
    18   15   16 1 
    19   17   11 1 
    20   18   11 1 
@<TRIPOS>SUBSTRUCTURE
1 MOL         1
@<TRIPOS>MOLECULE
query molecule
   18    20     1     0     0
SMALL
NO_CHARGE

@<TRIPOS>ATOM
      1 C4         69.0787   47.7709    8.3251 C.ar      1 MOL     0.0725
      2 C5         68.4542   47.1817    7.2229 C.ar      1 MOL     0.0009
      3 C6         68.7265   45.8516    6.9017 C.ar      1 MOL     0.0187
      4 C7         69.9077   43.7621    7.3599 C.2       1 MOL    -0.0112
      5 C8         69.1576   42.7549    7.8915 C.2       1 MOL     0.0163
      6 C10        70.8599   43.3288    6.5137 C.2       1 MOL     0.0538
      7 N12        68.8154   49.0437    8.6625 N.ar      1 MOL    -0.2334
      8 C13        67.9475   49.7949    7.9517 C.ar      1 MOL     0.1153
      9 C15        67.5556   47.9307    6.4628 C.ar      1 MOL     0.0138
     10 C14        67.2996   49.2570    6.8319 C.ar      1 MOL     0.0445
     11 N16        67.7259   51.0600    8.3081 N.pl3     1 MOL    -0.3432
     12 C3         69.9682   47.0238    9.0959 C.ar      1 MOL     0.0295
     13 C2         70.2462   45.6940    8.7701 C.ar      1 MOL     0.0108
     14 C1         69.6389   45.1014    7.6619 C.ar      1 MOL    -0.0171
     15 C11        69.4508   41.4904    7.5496 C.2       1 MOL     0.0459
     16 S9         70.7329   41.6268    6.4827 S.3       1 MOL    -0.1054
     17 H161       68.4974   51.6479    8.5895 H         1 MOL     0.1442
     18 H162       66.7865   51.4307    8.2966 H         1 MOL     0.1442
@<TRIPOS>BOND
     1    2    1 ar
     2    1    7 ar
     3    1   12 ar
     4    3    2 ar
     5    2    9 ar
     6   14    3 ar
     7    4    5 1 
     8    4    6 2 
     9    4   14 1 
    10    5   15 2 
    11    6   16 1 
    12    7    8 ar
    13    8   10 ar
    14    8   11 1 
    15    9   10 ar
    16   12   13 ar
    17   13   14 ar
    18   15   16 1 
    19   17   11 1 
    20   18   11 1 
@<TRIPOS>SUBSTRUCTURE
1 MOL         1
@<TRIPOS>MOLECULE
query molecule
   18    20     1     0     0
SMALL
NO_CHARGE

@<TRIPOS>ATOM
      1 C4         74.8950   46.5486    6.3894 C.ar      1 MOL     0.0725
      2 C5         74.9745   47.5834    7.3248 C.ar      1 MOL     0.0009
      3 C6         75.7581   47.4247    8.4682 C.ar      1 MOL     0.0187
      4 C7         77.2553   46.0618    9.8364 C.2       1 MOL    -0.0112
      5 C8         77.8059   47.1347   10.4730 C.2       1 MOL     0.0163
      6 C10        77.5282   44.8882   10.4353 C.2       1 MOL     0.0538
      7 N12        74.1620   46.6888    5.2731 N.ar      1 MOL    -0.2334
      8 C13        73.4778   47.8246    5.0187 C.ar      1 MOL     0.1153
      9 C15        74.2759   48.7691    7.0963 C.ar      1 MOL     0.0138
     10 C14        73.5154   48.8909    5.9268 C.ar      1 MOL     0.0445
     11 N16        72.7475   47.9188    3.9077 N.pl3     1 MOL    -0.3432
     12 C3         75.6009   45.3660    6.6061 C.ar      1 MOL     0.0295
     13 C2         76.3799   45.2046    7.7545 C.ar      1 MOL     0.0108
     14 C1         76.4533   46.2267    8.7020 C.ar      1 MOL    -0.0171
     15 C11        78.5505   46.9155   11.5681 C.2       1 MOL     0.0459
     16 S9         78.5096   45.2564   11.7826 S.3       1 MOL    -0.1054
     17 H161       72.1771   48.7365    3.7461 H         1 MOL     0.1442
     18 H162       72.7644   47.1725    3.2274 H         1 MOL     0.1442
@<TRIPOS>BOND
     1    2    1 ar
     2    1    7 ar
     3    1   12 ar
     4    3    2 ar
     5    2    9 ar
     6   14    3 ar
     7    4    5 1 
     8    4    6 2 
     9    4   14 1 
    10    5   15 2 
    11    6   16 1 
    12    7    8 ar
    13    8   10 ar
    14    8   11 1 
    15    9   10 ar
    16   12   13 ar
    17   13   14 ar
    18   15   16 1 
    19   17   11 1 
    20   18   11 1 
@<TRIPOS>SUBSTRUCTURE
1 MOL         1
@<TRIPOS>MOLECULE
query molecule
   18    20     1     0     0
SMALL
NO_CHARGE

@<TRIPOS>ATOM
      1 C4         73.4445   47.5765    3.4780 C.ar      1 MOL     0.0725
      2 C5         73.4827   46.2364    3.0846 C.ar      1 MOL     0.0009
      3 C6         74.1090   45.2930    3.8996 C.ar      1 MOL     0.0187
      4 C7         75.3381   44.7385    5.9376 C.2       1 MOL    -0.0112
      5 C8         74.9196   43.4410    5.9691 C.2       1 MOL     0.0163
      6 C10        76.3962   44.9774    6.7337 C.2       1 MOL     0.0538
      7 N12        72.8298   48.4967    2.7173 N.ar      1 MOL    -0.2334
      8 C13        72.2348   48.1628    1.5523 C.ar      1 MOL     0.1153
      9 C15        72.8824   45.8572    1.8838 C.ar      1 MOL     0.0138
     10 C14        72.2504   46.8349    1.1057 C.ar      1 MOL     0.0445
     11 N16        71.6499   49.1081    0.8168 N.pl3     1 MOL    -0.3432
     12 C3         74.0318   47.9596    4.6830 C.ar      1 MOL     0.0295
     13 C2         74.6650   47.0160    5.4957 C.ar      1 MOL     0.0108
     14 C1         74.7215   45.6776    5.1038 C.ar      1 MOL    -0.0171
     15 C11        75.5626   42.5811    6.7746 C.2       1 MOL     0.0459
     16 S9         76.7653   43.4948    7.4951 S.3       1 MOL    -0.1054
     17 H161       70.7811   49.5216    1.1239 H         1 MOL     0.1442
     18 H162       72.0755   49.4109   -0.0476 H         1 MOL     0.1442
@<TRIPOS>BOND
     1    2    1 ar
     2    1    7 ar
     3    1   12 ar
     4    3    2 ar
     5    2    9 ar
     6   14    3 ar
     7    4    5 1 
     8    4    6 2 
     9    4   14 1 
    10    5   15 2 
    11    6   16 1 
    12    7    8 ar
    13    8   10 ar
    14    8   11 1 
    15    9   10 ar
    16   12   13 ar
    17   13   14 ar
    18   15   16 1 
    19   17   11 1 
    20   18   11 1 
@<TRIPOS>SUBSTRUCTURE
1 MOL         1
@<TRIPOS>MOLECULE
query molecule
   18    20     1     0     0
SMALL
NO_CHARGE

@<TRIPOS>ATOM
      1 C4         70.8124   42.6042    6.4795 C.ar      1 MOL     0.0725
      2 C5         70.9514   43.4701    7.5671 C.ar      1 MOL     0.0009
      3 C6         70.4454   43.1024    8.8142 C.ar      1 MOL     0.0187
      4 C7         69.2805   41.4913   10.2351 C.2       1 MOL    -0.0112
      5 C8         69.4646   40.2246   10.7056 C.2       1 MOL     0.0163
      6 C10        68.6349   42.2937   11.1010 C.2       1 MOL     0.0538
      7 N12        71.3094   42.9310    5.2756 N.ar      1 MOL    -0.2334
      8 C13        71.9529   44.1006    5.0740 C.ar      1 MOL     0.1153
      9 C15        71.6063   44.6895    7.3931 C.ar      1 MOL     0.0138
     10 C14        72.1133   45.0100    6.1277 C.ar      1 MOL     0.0445
     11 N16        72.4170   44.3964    3.8600 N.pl3     1 MOL    -0.3432
     12 C3         70.1699   41.3788    6.6500 C.ar      1 MOL     0.0295
     13 C2         69.6570   41.0136    7.8972 C.ar      1 MOL     0.0108
     14 C1         69.7777   41.8785    8.9859 C.ar      1 MOL    -0.0171
     15 C11        68.9817   39.9171   11.9197 C.2       1 MOL     0.0459
     16 S9         68.2855   41.3359   12.4701 S.3       1 MOL    -0.1054
     17 H161       73.2612   43.9575    3.5212 H         1 MOL     0.1442
     18 H162       71.9244   45.0594    3.2788 H         1 MOL     0.1442
@<TRIPOS>BOND
     1    2    1 ar
     2    1    7 ar
     3    1   12 ar
     4    3    2 ar
     5    2    9 ar
     6   14    3 ar
     7    4    5 1 
     8    4    6 2 
     9    4   14 1 
    10    5   15 2 
    11    6   16 1 
    12    7    8 ar
    13    8   10 ar
    14    8   11 1 
    15    9   10 ar
    16   12   13 ar
    17   13   14 ar
    18   15   16 1 
    19   17   11 1 
    20   18   11 1 
@<TRIPOS>SUBSTRUCTURE
1 MOL         1
@<TRIPOS>MOLECULE
query molecule
   18    20     1     0     0
SMALL
NO_CHARGE

@<TRIPOS>ATOM
      1 C4         65.3655   52.1725   10.5440 C.ar      1 MOL     0.0725
      2 C5         63.9911   51.9352   10.4615 C.ar      1 MOL     0.0009
      3 C6         63.5200   50.6273   10.3437 C.ar      1 MOL     0.0187
      4 C7         63.9523   48.2275   10.1844 C.2       1 MOL    -0.0112
      5 C8         63.2534   47.8068    9.0916 C.2       1 MOL     0.0163
      6 C10        64.1727   47.2522   11.0848 C.2       1 MOL     0.0538
      7 N12        65.8383   53.4223   10.6772 N.ar      1 MOL    -0.2334
      8 C13        65.0089   54.4862   10.7319 C.ar      1 MOL     0.1153
      9 C15        63.1055   53.0121   10.5094 C.ar      1 MOL     0.0138
     10 C14        63.6221   54.3065   10.6452 C.ar      1 MOL     0.0445
     11 N16        65.5176   55.7128   10.8472 N.pl3     1 MOL    -0.3432
     12 C3         66.2549   51.0995   10.5092 C.ar      1 MOL     0.0295
     13 C2         65.7834   49.7904   10.3842 C.ar      1 MOL     0.0108
     14 C1         64.4131   49.5446   10.2858 C.ar      1 MOL    -0.0171
     15 C11        62.8541   46.5263    9.0421 C.2       1 MOL     0.0459
     16 S9         63.4308   45.8479   10.4590 S.3       1 MOL    -0.1054
     17 H161       64.9047   56.5156   10.8493 H         1 MOL     0.1442
     18 H162       66.5160   55.8395   10.9324 H         1 MOL     0.1442
@<TRIPOS>BOND
     1    2    1 ar
     2    1    7 ar
     3    1   12 ar
     4    3    2 ar
     5    2    9 ar
     6   14    3 ar
     7    4    5 1 
     8    4    6 2 
     9    4   14 1 
    10    5   15 2 
    11    6   16 1 
    12    7    8 ar
    13    8   10 ar
    14    8   11 1 
    15    9   10 ar
    16   12   13 ar
    17   13   14 ar
    18   15   16 1 
    19   17   11 1 
    20   18   11 1 
@<TRIPOS>SUBSTRUCTURE
1 MOL         1
@<TRIPOS>MOLECULE
query molecule
   18    20     1     0     0
SMALL
NO_CHARGE

@<TRIPOS>ATOM
      1 C4         68.6533   48.9802    7.1234 C.ar      1 MOL     0.0725
      2 C5         68.2713   49.2843    8.4324 C.ar      1 MOL     0.0009
      3 C6         67.0863   48.7586    8.9480 C.ar      1 MOL     0.0187
      4 C7         65.0772   47.3957    8.6697 C.2       1 MOL    -0.0112
      5 C8         64.8738   47.2867   10.0137 C.2       1 MOL     0.0163
      6 C10        64.0302   46.9765    7.9358 C.2       1 MOL     0.0538
      7 N12        69.7996   49.4603    6.6149 N.ar      1 MOL    -0.2334
      8 C13        70.6158   50.2511    7.3438 C.ar      1 MOL     0.1153
      9 C15        69.0885   50.1031    9.2122 C.ar      1 MOL     0.0138
     10 C14        70.2774   50.5947    8.6593 C.ar      1 MOL     0.0445
     11 N16        71.7368   50.7221    6.7977 N.pl3     1 MOL    -0.3432
     12 C3         67.8470   48.1524    6.3433 C.ar      1 MOL     0.0295
     13 C2         66.6569   47.6317    6.8574 C.ar      1 MOL     0.0108
     14 C1         66.2594   47.9422    8.1587 C.ar      1 MOL    -0.0171
     15 C11        63.7115   46.7720   10.4448 C.2       1 MOL     0.0459
     16 S9         62.8509   46.4417    9.0480 S.3       1 MOL    -0.1054
     17 H161       72.1866   50.2136    6.0498 H         1 MOL     0.1442
     18 H162       72.1364   51.5874    7.1316 H         1 MOL     0.1442
@<TRIPOS>BOND
     1    2    1 ar
     2    1    7 ar
     3    1   12 ar
     4    3    2 ar
     5    2    9 ar
     6   14    3 ar
     7    4    5 1 
     8    4    6 2 
     9    4   14 1 
    10    5   15 2 
    11    6   16 1 
    12    7    8 ar
    13    8   10 ar
    14    8   11 1 
    15    9   10 ar
    16   12   13 ar
    17   13   14 ar
    18   15   16 1 
    19   17   11 1 
    20   18   11 1 
@<TRIPOS>SUBSTRUCTURE
1 MOL         1
@<TRIPOS>MOLECULE
query molecule
   18    20     1     0     0
SMALL
NO_CHARGE

@<TRIPOS>ATOM
      1 C4         64.0602   44.7449   11.2835 C.ar      1 MOL     0.0725
      2 C5         63.5235   45.9492   11.7457 C.ar      1 MOL     0.0009
      3 C6         63.6919   46.3150   13.0815 C.ar      1 MOL     0.0187
      4 C7         64.5676   45.8394   15.3127 C.2       1 MOL    -0.0112
      5 C8         64.9783   47.0950   15.6510 C.2       1 MOL     0.0163
      6 C10        64.3339   45.0496   16.3767 C.2       1 MOL     0.0538
      7 N12        63.9260   44.3838    9.9971 N.ar      1 MOL    -0.2334
      8 C13        63.2692   45.1638    9.1123 C.ar      1 MOL     0.1153
      9 C15        62.8339   46.7772   10.8596 C.ar      1 MOL     0.0138
     10 C14        62.7038   46.3780    9.5237 C.ar      1 MOL     0.0445
     11 N16        63.1421   44.7624    7.8476 N.pl3     1 MOL    -0.3432
     12 C3         64.7611   43.9191   12.1613 C.ar      1 MOL     0.0295
     13 C2         64.9237   44.2822   13.5005 C.ar      1 MOL     0.0108
     14 C1         64.3779   45.4759   13.9750 C.ar      1 MOL    -0.0171
     15 C11        65.1241   47.3912   16.9520 C.2       1 MOL     0.0459
     16 S9         64.6889   45.9897   17.7565 S.3       1 MOL    -0.1054
     17 H161       63.7183   44.0111    7.4959 H         1 MOL     0.1442
     18 H162       62.4695   45.2093    7.2410 H         1 MOL     0.1442
@<TRIPOS>BOND
     1    2    1 ar
     2    1    7 ar
     3    1   12 ar
     4    3    2 ar
     5    2    9 ar
     6   14    3 ar
     7    4    5 1 
     8    4    6 2 
     9    4   14 1 
    10    5   15 2 
    11    6   16 1 
    12    7    8 ar
    13    8   10 ar
    14    8   11 1 
    15    9   10 ar
    16   12   13 ar
    17   13   14 ar
    18   15   16 1 
    19   17   11 1 
    20   18   11 1 
@<TRIPOS>SUBSTRUCTURE
1 MOL         1
@<TRIPOS>MOLECULE
query molecule
   18    20     1     0     0
SMALL
NO_CHARGE

@<TRIPOS>ATOM
      1 C4         66.4986   50.1627   10.1681 C.ar      1 MOL     0.0725
      2 C5         66.8634   49.2853    9.1439 C.ar      1 MOL     0.0009
      3 C6         66.0216   48.2246    8.8081 C.ar      1 MOL     0.0187
      4 C7         63.9584   46.9645    9.1640 C.2       1 MOL    -0.0112
      5 C8         64.2282   46.1437    8.1090 C.2       1 MOL     0.0163
      6 C10        62.8418   46.6239    9.8332 C.2       1 MOL     0.0538
      7 N12        67.2855   51.2010   10.4936 N.ar      1 MOL    -0.2334
      8 C13        68.4501   51.4301    9.8501 C.ar      1 MOL     0.1153
      9 C15        68.0629   49.4892    8.4614 C.ar      1 MOL     0.0138
     10 C14        68.8686   50.5767    8.8207 C.ar      1 MOL     0.0445
     11 N16        69.2120   52.4614   10.2140 N.pl3     1 MOL    -0.3432
     12 C3         65.2952   49.9715   10.8455 C.ar      1 MOL     0.0295
     13 C2         64.4556   48.9052   10.5138 C.ar      1 MOL     0.0108
     14 C1         64.8187   48.0146    9.5024 C.ar      1 MOL    -0.0171
     15 C11        63.3758   45.1411    7.8446 C.2       1 MOL     0.0459
     16 S9         62.1979   45.2641    9.0269 S.3       1 MOL    -0.1054
     17 H161       68.7985   53.3737   10.3440 H         1 MOL     0.1442
     18 H162       70.2028   52.3307   10.3599 H         1 MOL     0.1442
@<TRIPOS>BOND
     1    2    1 ar
     2    1    7 ar
     3    1   12 ar
     4    3    2 ar
     5    2    9 ar
     6   14    3 ar
     7    4    5 1 
     8    4    6 2 
     9    4   14 1 
    10    5   15 2 
    11    6   16 1 
    12    7    8 ar
    13    8   10 ar
    14    8   11 1 
    15    9   10 ar
    16   12   13 ar
    17   13   14 ar
    18   15   16 1 
    19   17   11 1 
    20   18   11 1 
@<TRIPOS>SUBSTRUCTURE
1 MOL         1
@<TRIPOS>MOLECULE
query molecule
   18    20     1     0     0
SMALL
NO_CHARGE

@<TRIPOS>ATOM
      1 C4         72.5149   49.2508    7.9448 C.ar      1 MOL     0.0725
      2 C5         72.6415   48.9021    9.2918 C.ar      1 MOL     0.0009
      3 C6         73.7759   48.2156    9.7258 C.ar      1 MOL     0.0187
      4 C7         75.9352   47.1773    9.2455 C.2       1 MOL    -0.0112
      5 C8         76.4974   47.4397   10.4600 C.2       1 MOL     0.0163
      6 C10        76.5667   46.2039    8.5643 C.2       1 MOL     0.0538
      7 N12        71.4401   49.9286    7.5105 N.ar      1 MOL    -0.2334
      8 C13        70.4492   50.2909    8.3529 C.ar      1 MOL     0.1153
      9 C15        71.6336   49.2561   10.1891 C.ar      1 MOL     0.0138
     10 C14        70.5207   49.9596    9.7124 C.ar      1 MOL     0.0445
     11 N16        69.3901   50.9478    7.8802 N.pl3     1 MOL    -0.3432
     12 C3         73.5246   48.9108    7.0455 C.ar      1 MOL     0.0295
     13 C2         74.6572   48.2172    7.4789 C.ar      1 MOL     0.0108
     14 C1         74.7854   47.8512    8.8196 C.ar      1 MOL    -0.0171
     15 C11        77.5888   46.7474   10.8222 C.2       1 MOL     0.0459
     16 S9         77.8736   45.7064    9.5433 S.3       1 MOL    -0.1054
     17 H161       69.4966   51.8858    7.5210 H         1 MOL     0.1442
     18 H162       68.4811   50.5077    7.8812 H         1 MOL     0.1442
@<TRIPOS>BOND
     1    2    1 ar
     2    1    7 ar
     3    1   12 ar
     4    3    2 ar
     5    2    9 ar
     6   14    3 ar
     7    4    5 1 
     8    4    6 2 
     9    4   14 1 
    10    5   15 2 
    11    6   16 1 
    12    7    8 ar
    13    8   10 ar
    14    8   11 1 
    15    9   10 ar
    16   12   13 ar
    17   13   14 ar
    18   15   16 1 
    19   17   11 1 
    20   18   11 1 
@<TRIPOS>SUBSTRUCTURE
1 MOL         1
@<TRIPOS>MOLECULE
query molecule
   18    20     1     0     0
SMALL
NO_CHARGE

@<TRIPOS>ATOM
      1 C4         65.0141   47.1621   16.8311 C.ar      1 MOL     0.0725
      2 C5         63.8864   47.9541   16.6013 C.ar      1 MOL     0.0009
      3 C6         63.1580   47.7964   15.4219 C.ar      1 MOL     0.0187
      4 C7         62.8256   46.6845   13.2713 C.2       1 MOL    -0.0112
      5 C8         63.4255   46.7682   12.0495 C.2       1 MOL     0.0163
      6 C10        61.5176   46.3762   13.2036 C.2       1 MOL     0.0538
      7 N12        65.7175   47.2849   17.9684 N.ar      1 MOL    -0.2334
      8 C13        65.3649   48.1740   18.9212 C.ar      1 MOL     0.1153
      9 C15        63.4965   48.8871   17.5625 C.ar      1 MOL     0.0138
     10 C14        64.2475   48.9995   18.7390 C.ar      1 MOL     0.0445
     11 N16        66.0988   48.2782   20.0290 N.pl3     1 MOL    -0.3432
     12 C3         65.4016   46.2194   15.8799 C.ar      1 MOL     0.0295
     13 C2         64.6761   46.0664   14.6957 C.ar      1 MOL     0.0108
     14 C1         63.5571   46.8636   14.4504 C.ar      1 MOL    -0.0171
     15 C11        62.6760   46.5677   10.9542 C.2       1 MOL     0.0459
     16 S9         61.1449   46.2380   11.5436 S.3       1 MOL    -0.1054
     17 H161       65.7946   47.8283   20.8805 H         1 MOL     0.1442
     18 H162       66.9592   48.8070   20.0168 H         1 MOL     0.1442
@<TRIPOS>BOND
     1    2    1 ar
     2    1    7 ar
     3    1   12 ar
     4    3    2 ar
     5    2    9 ar
     6   14    3 ar
     7    4    5 1 
     8    4    6 2 
     9    4   14 1 
    10    5   15 2 
    11    6   16 1 
    12    7    8 ar
    13    8   10 ar
    14    8   11 1 
    15    9   10 ar
    16   12   13 ar
    17   13   14 ar
    18   15   16 1 
    19   17   11 1 
    20   18   11 1 
@<TRIPOS>SUBSTRUCTURE
1 MOL         1
@<TRIPOS>MOLECULE
query molecule
   18    20     1     0     0
SMALL
NO_CHARGE

@<TRIPOS>ATOM
      1 C4         64.3991   49.3412   13.7102 C.ar      1 MOL     0.0725
      2 C5         64.2743   47.9634   13.5158 C.ar      1 MOL     0.0009
      3 C6         64.4027   47.0963   14.6012 C.ar      1 MOL     0.0187
      4 C7         64.7921   46.7328   16.9861 C.2       1 MOL    -0.0112
      5 C8         65.4213   47.1305   18.1287 C.2       1 MOL     0.0163
      6 C10        64.2797   45.4911   17.0636 C.2       1 MOL     0.0538
      7 N12        64.2596   50.1938   12.6822 N.ar      1 MOL    -0.2334
      8 C13        63.9996   49.7529   11.4329 C.ar      1 MOL     0.1153
      9 C15        64.0110   47.4727   12.2366 C.ar      1 MOL     0.0138
     10 C14        63.8729   48.3807   11.1796 C.ar      1 MOL     0.0445
     11 N16        63.8852   50.6296   10.4354 N.pl3     1 MOL    -0.3432
     12 C3         64.6498   49.8384   14.9884 C.ar      1 MOL     0.0295
     13 C2         64.7854   48.9697   16.0740 C.ar      1 MOL     0.0108
     14 C1         64.6775   47.5908   15.8870 C.ar      1 MOL    -0.0171
     15 C11        65.4830   46.2703   19.1573 C.2       1 MOL     0.0459
     16 S9         64.6731   44.9083   18.6191 S.3       1 MOL    -0.1054
     17 H161       64.7008   51.1215   10.0994 H         1 MOL     0.1442
     18 H162       62.9829   50.8020   10.0156 H         1 MOL     0.1442
@<TRIPOS>BOND
     1    2    1 ar
     2    1    7 ar
     3    1   12 ar
     4    3    2 ar
     5    2    9 ar
     6   14    3 ar
     7    4    5 1 
     8    4    6 2 
     9    4   14 1 
    10    5   15 2 
    11    6   16 1 
    12    7    8 ar
    13    8   10 ar
    14    8   11 1 
    15    9   10 ar
    16   12   13 ar
    17   13   14 ar
    18   15   16 1 
    19   17   11 1 
    20   18   11 1 
@<TRIPOS>SUBSTRUCTURE
1 MOL         1
@<TRIPOS>MOLECULE
query molecule
   18    20     1     0     0
SMALL
NO_CHARGE

@<TRIPOS>ATOM
      1 C4         76.0975   45.6047    9.1767 C.ar      1 MOL     0.0725
      2 C5         76.4737   46.6557   10.0167 C.ar      1 MOL     0.0009
      3 C6         75.5021   47.5199   10.5225 C.ar      1 MOL     0.0187
      4 C7         73.1638   48.2087   10.6940 C.2       1 MOL    -0.0112
      5 C8         72.0649   48.5407    9.9579 C.2       1 MOL     0.0163
      6 C10        73.1565   48.7368   11.9316 C.2       1 MOL     0.0538
      7 N12        77.0148   44.7504    8.6950 N.ar      1 MOL    -0.2334
      8 C13        78.3238   44.8781    9.0000 C.ar      1 MOL     0.1153
      9 C15        77.8187   46.8205   10.3482 C.ar      1 MOL     0.0138
     10 C14        78.7576   45.9193    9.8312 C.ar      1 MOL     0.0445
     11 N16        79.2061   44.0203    8.4881 N.pl3     1 MOL    -0.3432
     12 C3         74.7533   45.4274    8.8517 C.ar      1 MOL     0.0295
     13 C2         73.7813   46.2970    9.3526 C.ar      1 MOL     0.0108
     14 C1         74.1493   47.3589   10.1802 C.ar      1 MOL    -0.0171
     15 C11        71.1435   49.3445   10.5116 C.2       1 MOL     0.0459
     16 S9         71.7234   49.6565   12.0500 S.3       1 MOL    -0.1054
     17 H161       80.1362   43.9600    8.8773 H         1 MOL     0.1442
     18 H162       78.9448   43.4304    7.7110 H         1 MOL     0.1442
@<TRIPOS>BOND
     1    2    1 ar
     2    1    7 ar
     3    1   12 ar
     4    3    2 ar
     5    2    9 ar
     6   14    3 ar
     7    4    5 1 
     8    4    6 2 
     9    4   14 1 
    10    5   15 2 
    11    6   16 1 
    12    7    8 ar
    13    8   10 ar
    14    8   11 1 
    15    9   10 ar
    16   12   13 ar
    17   13   14 ar
    18   15   16 1 
    19   17   11 1 
    20   18   11 1 
@<TRIPOS>SUBSTRUCTURE
1 MOL         1
@<TRIPOS>MOLECULE
query molecule
   18    20     1     0     0
SMALL
NO_CHARGE

@<TRIPOS>ATOM
      1 C4         65.1136   47.6044   18.2312 C.ar      1 MOL     0.0725
      2 C5         65.0052   48.3512   19.4070 C.ar      1 MOL     0.0009
      3 C6         64.5656   49.6741   19.3492 C.ar      1 MOL     0.0187
      4 C7         63.7920   51.5931   18.0491 C.2       1 MOL    -0.0112
      5 C8         64.4626   52.5351   17.3261 C.2       1 MOL     0.0163
      6 C10        62.6658   52.0596   18.6188 C.2       1 MOL     0.0538
      7 N12        65.5162   46.3238   18.2674 N.ar      1 MOL    -0.2334
      8 C13        65.8319   45.7183   19.4321 C.ar      1 MOL     0.1153
      9 C15        65.3285   47.7584   20.6278 C.ar      1 MOL     0.0138
     10 C14        65.7493   46.4229   20.6403 C.ar      1 MOL     0.0445
     11 N16        66.2441   44.4508   19.4249 N.pl3     1 MOL    -0.3432
     12 C3         64.7801   48.1874   17.0095 C.ar      1 MOL     0.0295
     13 C2         64.3465   49.5142   16.9509 C.ar      1 MOL     0.0108
     14 C1         64.2497   50.2728   18.1184 C.ar      1 MOL    -0.0171
     15 C11        63.9645   53.7807   17.2809 C.2       1 MOL     0.0459
     16 S9         62.5641   53.7099   18.1945 S.3       1 MOL    -0.1054
     17 H161       66.5750   44.0225   20.2776 H         1 MOL     0.1442
     18 H162       66.2257   43.9185   18.5667 H         1 MOL     0.1442
@<TRIPOS>BOND
     1    2    1 ar
     2    1    7 ar
     3    1   12 ar
     4    3    2 ar
     5    2    9 ar
     6   14    3 ar
     7    4    5 1 
     8    4    6 2 
     9    4   14 1 
    10    5   15 2 
    11    6   16 1 
    12    7    8 ar
    13    8   10 ar
    14    8   11 1 
    15    9   10 ar
    16   12   13 ar
    17   13   14 ar
    18   15   16 1 
    19   17   11 1 
    20   18   11 1 
@<TRIPOS>SUBSTRUCTURE
1 MOL         1
@<TRIPOS>MOLECULE
query molecule
   18    20     1     0     0
SMALL
NO_CHARGE

@<TRIPOS>ATOM
      1 C4         66.7573   47.6579    8.5203 C.ar      1 MOL     0.0725
      2 C5         66.9292   48.9326    7.9747 C.ar      1 MOL     0.0009
      3 C6         66.1817   50.0030    8.4666 C.ar      1 MOL     0.0187
      4 C7         64.4974   50.8795   10.0048 C.2       1 MOL    -0.0112
      5 C8         65.0900   52.0693   10.3095 C.2       1 MOL     0.0163
      6 C10        63.1668   50.8795   10.2048 C.2       1 MOL     0.0538
      7 N12        67.4808   46.6183    8.0742 N.ar      1 MOL    -0.2334
      8 C13        68.3904   46.7660    7.0875 C.ar      1 MOL     0.1153
      9 C15        67.8569   49.1201    6.9498 C.ar      1 MOL     0.0138
     10 C14        68.5973   48.0204    6.4988 C.ar      1 MOL     0.0445
     11 N16        69.0766   45.7062    6.6603 N.pl3     1 MOL    -0.3432
     12 C3         65.8406   47.4666    9.5531 C.ar      1 MOL     0.0295
     13 C2         65.0871   48.5372   10.0409 C.ar      1 MOL     0.0108
     14 C1         65.2409   49.8111    9.4918 C.ar      1 MOL    -0.0171
     15 C11        64.3218   53.0643   10.7801 C.2       1 MOL     0.0459
     16 S9         62.7737   52.4292   10.8030 S.3       1 MOL    -0.1054
     17 H161       69.8317   45.3348    7.2188 H         1 MOL     0.1442
     18 H162       68.8415   45.2745    5.7780 H         1 MOL     0.1442
@<TRIPOS>BOND
     1    2    1 ar
     2    1    7 ar
     3    1   12 ar
     4    3    2 ar
     5    2    9 ar
     6   14    3 ar
     7    4    5 1 
     8    4    6 2 
     9    4   14 1 
    10    5   15 2 
    11    6   16 1 
    12    7    8 ar
    13    8   10 ar
    14    8   11 1 
    15    9   10 ar
    16   12   13 ar
    17   13   14 ar
    18   15   16 1 
    19   17   11 1 
    20   18   11 1 
@<TRIPOS>SUBSTRUCTURE
1 MOL         1
@<TRIPOS>MOLECULE
query molecule
   18    20     1     0     0
SMALL
NO_CHARGE

@<TRIPOS>ATOM
      1 C4         65.9540   50.3345   12.8598 C.ar      1 MOL     0.0725
      2 C5         65.5304   49.7565   11.6604 C.ar      1 MOL     0.0009
      3 C6         66.3453   49.8300   10.5304 C.ar      1 MOL     0.0187
      4 C7         68.4137   50.5639    9.4558 C.2       1 MOL    -0.0112
      5 C8         69.4028   51.4984    9.3661 C.2       1 MOL     0.0163
      6 C10        68.3741   49.7260    8.4037 C.2       1 MOL     0.0538
      7 N12        65.1933   50.2579   13.9637 N.ar      1 MOL    -0.2334
      8 C13        63.9993   49.6277   13.9529 C.ar      1 MOL     0.1153
      9 C15        64.2993   49.1020   11.6122 C.ar      1 MOL     0.0138
     10 C14        63.5219   49.0379   12.7751 C.ar      1 MOL     0.0445
     11 N16        63.2654   49.5881   15.0649 N.pl3     1 MOL    -0.3432
     12 C3         67.1889   50.9791   12.9175 C.ar      1 MOL     0.0295
     13 C2         68.0017   51.0588   11.7840 C.ar      1 MOL     0.0108
     14 C1         67.5803   50.4977   10.5776 C.ar      1 MOL    -0.0171
     15 C11        70.1833   51.5005    8.2740 C.2       1 MOL     0.0459
     16 S9         69.6186   50.2263    7.3477 S.3       1 MOL    -0.1054
     17 H161       62.8260   50.4294   15.4102 H         1 MOL     0.1442
     18 H162       63.1486   48.7168   15.5621 H         1 MOL     0.1442
@<TRIPOS>BOND
     1    2    1 ar
     2    1    7 ar
     3    1   12 ar
     4    3    2 ar
     5    2    9 ar
     6   14    3 ar
     7    4    5 1 
     8    4    6 2 
     9    4   14 1 
    10    5   15 2 
    11    6   16 1 
    12    7    8 ar
    13    8   10 ar
    14    8   11 1 
    15    9   10 ar
    16   12   13 ar
    17   13   14 ar
    18   15   16 1 
    19   17   11 1 
    20   18   11 1 
@<TRIPOS>SUBSTRUCTURE
1 MOL         1
@<TRIPOS>MOLECULE
query molecule
   18    20     1     0     0
SMALL
NO_CHARGE

@<TRIPOS>ATOM
      1 C4         78.5073   45.3378    8.4531 C.ar      1 MOL     0.0725
      2 C5         79.8557   45.1313    8.7551 C.ar      1 MOL     0.0009
      3 C6         80.3773   45.6098    9.9574 C.ar      1 MOL     0.0187
      4 C7         80.0741   46.7868   12.0774 C.2       1 MOL    -0.0112
      5 C8         80.3225   48.1135   12.2722 C.2       1 MOL     0.0163
      6 C10        80.3210   46.0325   13.1639 C.2       1 MOL     0.0538
      7 N12        77.9814   44.8685    7.3102 N.ar      1 MOL    -0.2334
      8 C13        78.7321   44.1889    6.4172 C.ar      1 MOL     0.1153
      9 C15        80.6619   44.4376    7.8523 C.ar      1 MOL     0.0138
     10 C14        80.0920   43.9606    6.6655 C.ar      1 MOL     0.0445
     11 N16        78.1775   43.7540    5.2859 N.pl3     1 MOL    -0.3432
     12 C3         77.6937   46.0196    9.3569 C.ar      1 MOL     0.0295
     13 C2         78.2177   46.5047   10.5577 C.ar      1 MOL     0.0108
     14 C1         79.5669   46.3166   10.8612 C.ar      1 MOL    -0.0171
     15 C11        80.7904   48.5076   13.4670 C.2       1 MOL     0.0459
     16 S9         80.8868   47.1012   14.3687 S.3       1 MOL    -0.1054
     17 H161       78.2763   44.2908    4.4361 H         1 MOL     0.1442
     18 H162       77.6583   42.8877    5.2785 H         1 MOL     0.1442
@<TRIPOS>BOND
     1    2    1 ar
     2    1    7 ar
     3    1   12 ar
     4    3    2 ar
     5    2    9 ar
     6   14    3 ar
     7    4    5 1 
     8    4    6 2 
     9    4   14 1 
    10    5   15 2 
    11    6   16 1 
    12    7    8 ar
    13    8   10 ar
    14    8   11 1 
    15    9   10 ar
    16   12   13 ar
    17   13   14 ar
    18   15   16 1 
    19   17   11 1 
    20   18   11 1 
@<TRIPOS>SUBSTRUCTURE
1 MOL         1
@<TRIPOS>MOLECULE
query molecule
   18    20     1     0     0
SMALL
NO_CHARGE

@<TRIPOS>ATOM
      1 C4         76.9020   43.1211   14.2277 C.ar      1 MOL     0.0725
      2 C5         78.2882   42.9615   14.2990 C.ar      1 MOL     0.0009
      3 C6         79.1091   43.6191   13.3824 C.ar      1 MOL     0.0187
      4 C7         79.3705   45.1028   11.4584 C.2       1 MOL    -0.0112
      5 C8         79.4063   44.7419   10.1438 C.2       1 MOL     0.0163
      6 C10        80.1408   46.1695   11.7401 C.2       1 MOL     0.0538
      7 N12        76.0958   42.5123   15.1123 N.ar      1 MOL    -0.2334
      8 C13        76.5919   41.7273   16.0923 C.ar      1 MOL     0.1153
      9 C15        78.8347   42.1530   15.2960 C.ar      1 MOL     0.0138
     10 C14        77.9739   41.5258   16.2050 C.ar      1 MOL     0.0445
     11 N16        75.7579   41.1263   16.9406 N.pl3     1 MOL    -0.3432
     12 C3         76.3506   43.9376   13.2413 C.ar      1 MOL     0.0295
     13 C2         77.1723   44.5905   12.3192 C.ar      1 MOL     0.0108
     14 C1         78.5571   44.4251   12.3730 C.ar      1 MOL    -0.0171
     15 C11        80.1911   45.4419    9.3097 C.2       1 MOL     0.0459
     16 S9         80.8855   46.6218   10.2721 S.3       1 MOL    -0.1054
     17 H161       74.8530   41.5321   17.1320 H         1 MOL     0.1442
     18 H162       76.0306   40.2650   17.3921 H         1 MOL     0.1442
@<TRIPOS>BOND
     1    2    1 ar
     2    1    7 ar
     3    1   12 ar
     4    3    2 ar
     5    2    9 ar
     6   14    3 ar
     7    4    5 1 
     8    4    6 2 
     9    4   14 1 
    10    5   15 2 
    11    6   16 1 
    12    7    8 ar
    13    8   10 ar
    14    8   11 1 
    15    9   10 ar
    16   12   13 ar
    17   13   14 ar
    18   15   16 1 
    19   17   11 1 
    20   18   11 1 
@<TRIPOS>SUBSTRUCTURE
1 MOL         1
