@<TRIPOS>MOLECULE
query molecule
   18    20     1     0     0
SMALL
NO_CHARGE

@<TRIPOS>ATOM
      1 C4         77.8925   46.5792   10.5015 C.ar      1 MOL     0.0725
      2 C5         78.6627   45.6234    9.8343 C.ar      1 MOL     0.0009
      3 C6         78.0989   44.8814    8.7960 C.ar      1 MOL     0.0187
      4 C7         76.1849   44.3428    7.3754 C.2       1 MOL    -0.0112
      5 C8         75.7907   44.9592    6.2245 C.2       1 MOL     0.0163
      6 C10        76.0071   43.0093    7.3544 C.2       1 MOL     0.0538
      7 N12        78.4221   47.3172   11.4905 N.ar      1 MOL    -0.2334
      8 C13        79.7067   47.1604   11.8749 C.ar      1 MOL     0.1153
      9 C15        79.9927   45.4313   10.2093 C.ar      1 MOL     0.0138
     10 C14        80.5219   46.2103   11.2456 C.ar      1 MOL     0.0445
     11 N16        80.1908   47.9000   12.8725 N.pl3     1 MOL    -0.3432
     12 C3         76.5665   46.7844   10.1230 C.ar      1 MOL     0.0295
     13 C2         75.9999   46.0365    9.0879 C.ar      1 MOL     0.0108
     14 C1         76.7569   45.0688    8.4257 C.ar      1 MOL    -0.0171
     15 C11        75.2664   44.2074    5.2439 C.2       1 MOL     0.0459
     16 S9         75.3118   42.6439    5.8389 S.3       1 MOL    -0.1054
     17 H161       80.2510   48.9034   12.7742 H         1 MOL     0.1442
     18 H162       80.4974   47.4570   13.7268 H         1 MOL     0.1442
@<TRIPOS>BOND
     1    2    1 ar
     2    1    7 ar
     3    1   12 ar
     4    3    2 ar
     5    2    9 ar
     6   14    3 ar
     7    4    5 1 
     8    4    6 2 
     9    4   14 1 
    10    5   15 2 
    11    6   16 1 
    12    7    8 ar
    13    8   10 ar
    14    8   11 1 
    15    9   10 ar
    16   12   13 ar
    17   13   14 ar
    18   15   16 1 
    19   17   11 1 
    20   18   11 1 
@<TRIPOS>SUBSTRUCTURE
1 MOL         1
@<TRIPOS>MOLECULE
query molecule
   18    20     1     0     0
SMALL
NO_CHARGE

@<TRIPOS>ATOM
      1 C4         73.1442   43.5525    7.8093 C.ar      1 MOL     0.0725
      2 C5         73.4306   43.4497    6.4457 C.ar      1 MOL     0.0009
      3 C6         74.7551   43.5015    6.0104 C.ar      1 MOL     0.0187
      4 C7         77.1390   43.7140    6.5037 C.2       1 MOL    -0.0112
      5 C8         77.6387   42.7644    5.6621 C.2       1 MOL     0.0163
      6 C10        78.0323   44.6687    6.8216 C.2       1 MOL     0.0538
      7 N12        71.8776   43.4855    8.2504 N.ar      1 MOL    -0.2334
      8 C13        70.8435   43.3216    7.3980 C.ar      1 MOL     0.1153
      9 C15        72.3856   43.2849    5.5363 C.ar      1 MOL     0.0138
     10 C14        71.0728   43.2213    6.0195 C.ar      1 MOL     0.0445
     11 N16        69.5989   43.2772    7.8731 N.pl3     1 MOL    -0.3432
     12 C3         74.1851   43.7047    8.7241 C.ar      1 MOL     0.0295
     13 C2         75.5109   43.7636    8.2876 C.ar      1 MOL     0.0108
     14 C1         75.8058   43.6771    6.9261 C.ar      1 MOL    -0.0171
     15 C11        78.9204   42.8632    5.2757 C.2       1 MOL     0.0459
     16 S9         79.4808   44.2536    6.0195 S.3       1 MOL    -0.1054
     17 H161       69.2966   43.9522    8.5609 H         1 MOL     0.1442
     18 H162       68.9583   42.5686    7.5453 H         1 MOL     0.1442
@<TRIPOS>BOND
     1    2    1 ar
     2    1    7 ar
     3    1   12 ar
     4    3    2 ar
     5    2    9 ar
     6   14    3 ar
     7    4    5 1 
     8    4    6 2 
     9    4   14 1 
    10    5   15 2 
    11    6   16 1 
    12    7    8 ar
    13    8   10 ar
    14    8   11 1 
    15    9   10 ar
    16   12   13 ar
    17   13   14 ar
    18   15   16 1 
    19   17   11 1 
    20   18   11 1 
@<TRIPOS>SUBSTRUCTURE
1 MOL         1
@<TRIPOS>MOLECULE
query molecule
   18    20     1     0     0
SMALL
NO_CHARGE

@<TRIPOS>ATOM
      1 C4         72.4053   40.9242   20.3012 C.ar      1 MOL     0.0725
      2 C5         71.7512   41.0320   19.0713 C.ar      1 MOL     0.0009
      3 C6         70.4139   40.6495   18.9622 C.ar      1 MOL     0.0187
      4 C7         68.3752   39.7649   19.9783 C.2       1 MOL    -0.0112
      5 C8         67.4197   40.3823   20.7303 C.2       1 MOL     0.0163
      6 C10        67.8783   38.8338   19.1436 C.2       1 MOL     0.0538
      7 N12        73.6863   41.3052   20.4317 N.ar      1 MOL    -0.2334
      8 C13        74.3836   41.7986   19.3862 C.ar      1 MOL     0.1153
      9 C15        72.4434   41.5328   17.9684 C.ar      1 MOL     0.0138
     10 C14        73.7795   41.9204   18.1280 C.ar      1 MOL     0.0445
     11 N16        75.6587   42.1497   19.5518 N.pl3     1 MOL    -0.3432
     12 C3         71.7153   40.4362   21.4099 C.ar      1 MOL     0.0295
     13 C2         70.3782   40.0466   21.2989 C.ar      1 MOL     0.0108
     14 C1         69.7209   40.1363   20.0710 C.ar      1 MOL    -0.0171
     15 C11        66.1425   39.9962   20.5839 C.2       1 MOL     0.0459
     16 S9         66.1925   38.8045   19.4100 S.3       1 MOL    -0.1054
     17 H161       76.2661   41.5880   20.1311 H         1 MOL     0.1442
     18 H162       76.0176   42.9774   19.0978 H         1 MOL     0.1442
@<TRIPOS>BOND
     1    2    1 ar
     2    1    7 ar
     3    1   12 ar
     4    3    2 ar
     5    2    9 ar
     6   14    3 ar
     7    4    5 1 
     8    4    6 2 
     9    4   14 1 
    10    5   15 2 
    11    6   16 1 
    12    7    8 ar
    13    8   10 ar
    14    8   11 1 
    15    9   10 ar
    16   12   13 ar
    17   13   14 ar
    18   15   16 1 
    19   17   11 1 
    20   18   11 1 
@<TRIPOS>SUBSTRUCTURE
1 MOL         1
@<TRIPOS>MOLECULE
query molecule
   18    20     1     0     0
SMALL
NO_CHARGE

@<TRIPOS>ATOM
      1 C4         61.8612   46.1584   13.6534 C.ar      1 MOL     0.0725
      2 C5         60.9446   46.1101   12.6001 C.ar      1 MOL     0.0009
      3 C6         61.3892   46.2681   11.2872 C.ar      1 MOL     0.0187
      4 C7         63.2081   46.6399    9.6982 C.2       1 MOL    -0.0112
      5 C8         63.2320   45.5808    8.8395 C.2       1 MOL     0.0163
      6 C10        63.6176   47.7919    9.1361 C.2       1 MOL     0.0538
      7 N12        61.4563   45.9894   14.9225 N.ar      1 MOL    -0.2334
      8 C13        60.1583   45.7722   15.2239 C.ar      1 MOL     0.1153
      9 C15        59.5944   45.8928   12.8759 C.ar      1 MOL     0.0138
     10 C14        59.1954   45.7227   14.2073 C.ar      1 MOL     0.0445
     11 N16        59.7933   45.6265   16.4975 N.pl3     1 MOL    -0.3432
     12 C3         63.2136   46.3629   13.3832 C.ar      1 MOL     0.0295
     13 C2         63.6578   46.5280   12.0689 C.ar      1 MOL     0.0108
     14 C1         62.7475   46.4966   11.0115 C.ar      1 MOL    -0.0171
     15 C11        63.6662   45.7838    7.5857 C.2       1 MOL     0.0459
     16 S9         64.0329   47.4154    7.5238 S.3       1 MOL    -0.1054
     17 H161       60.0675   46.3152   17.1834 H         1 MOL     0.1442
     18 H162       59.2423   44.8273   16.7766 H         1 MOL     0.1442
@<TRIPOS>BOND
     1    2    1 ar
     2    1    7 ar
     3    1   12 ar
     4    3    2 ar
     5    2    9 ar
     6   14    3 ar
     7    4    5 1 
     8    4    6 2 
     9    4   14 1 
    10    5   15 2 
    11    6   16 1 
    12    7    8 ar
    13    8   10 ar
    14    8   11 1 
    15    9   10 ar
    16   12   13 ar
    17   13   14 ar
    18   15   16 1 
    19   17   11 1 
    20   18   11 1 
@<TRIPOS>SUBSTRUCTURE
1 MOL         1
@<TRIPOS>MOLECULE
query molecule
   18    20     1     0     0
SMALL
NO_CHARGE

@<TRIPOS>ATOM
      1 C4         64.1962   43.0578   15.2586 C.ar      1 MOL     0.0725
      2 C5         64.7555   43.8032   14.2178 C.ar      1 MOL     0.0009
      3 C6         64.7750   45.1961   14.2961 C.ar      1 MOL     0.0187
      4 C7         64.2474   47.2565   15.4994 C.2       1 MOL    -0.0112
      5 C8         63.7085   48.0430   14.5244 C.2       1 MOL     0.0163
      6 C10        64.7415   47.9561   16.5371 C.2       1 MOL     0.0538
      7 N12        64.1850   41.7158   15.2113 N.ar      1 MOL    -0.2334
      8 C13        64.7065   41.0444   14.1625 C.ar      1 MOL     0.1153
      9 C15        65.2987   43.1420   13.1159 C.ar      1 MOL     0.0138
     10 C14        65.2725   41.7422   13.0873 C.ar      1 MOL     0.0445
     11 N16        64.6608   39.7125   14.1444 N.pl3     1 MOL    -0.3432
     12 C3         63.6630   43.7124   16.3680 C.ar      1 MOL     0.0295
     13 C2         63.6763   45.1074   16.4432 C.ar      1 MOL     0.0108
     14 C1         64.2191   45.8611   15.4015 C.ar      1 MOL    -0.0171
     15 C11        63.7481   49.3753   14.6830 C.2       1 MOL     0.0459
     16 S9         64.4935   49.6033   16.1639 S.3       1 MOL    -0.1054
     17 H161       64.4001   39.2048   14.9777 H         1 MOL     0.1442
     18 H162       64.8870   39.2109   13.2975 H         1 MOL     0.1442
@<TRIPOS>BOND
     1    2    1 ar
     2    1    7 ar
     3    1   12 ar
     4    3    2 ar
     5    2    9 ar
     6   14    3 ar
     7    4    5 1 
     8    4    6 2 
     9    4   14 1 
    10    5   15 2 
    11    6   16 1 
    12    7    8 ar
    13    8   10 ar
    14    8   11 1 
    15    9   10 ar
    16   12   13 ar
    17   13   14 ar
    18   15   16 1 
    19   17   11 1 
    20   18   11 1 
@<TRIPOS>SUBSTRUCTURE
1 MOL         1
@<TRIPOS>MOLECULE
query molecule
   18    20     1     0     0
SMALL
NO_CHARGE

@<TRIPOS>ATOM
      1 C4         69.2492   51.3377   13.9381 C.ar      1 MOL     0.0725
      2 C5         68.9083   51.0758   12.6088 C.ar      1 MOL     0.0009
      3 C6         69.8813   50.6126   11.7226 C.ar      1 MOL     0.0187
      4 C7         72.1885   49.9459   11.2710 C.2       1 MOL    -0.0112
      5 C8         73.0621   48.9723   11.6564 C.2       1 MOL     0.0163
      6 C10        72.3506   50.3326    9.9925 C.2       1 MOL     0.0538
      7 N12        68.3233   51.7655   14.8115 N.ar      1 MOL    -0.2334
      8 C13        67.0406   51.9600   14.4380 C.ar      1 MOL     0.1153
      9 C15        67.5929   51.2711   12.1872 C.ar      1 MOL     0.0138
     10 C14        66.6455   51.7211   13.1151 C.ar      1 MOL     0.0445
     11 N16        66.1545   52.4022   15.3301 N.pl3     1 MOL    -0.3432
     12 C3         70.5594   51.1326   14.3684 C.ar      1 MOL     0.0295
     13 C2         71.5352   50.6754   13.4793 C.ar      1 MOL     0.0108
     14 C1         71.2076   50.4256   12.1458 C.ar      1 MOL    -0.0171
     15 C11        73.9689   48.5383   10.7670 C.2       1 MOL     0.0459
     16 S9         73.6529   49.4162    9.3777 S.3       1 MOL    -0.1054
     17 H161       66.3053   52.2389   16.3153 H         1 MOL     0.1442
     18 H162       65.3322   52.9005   15.0209 H         1 MOL     0.1442
@<TRIPOS>BOND
     1    2    1 ar
     2    1    7 ar
     3    1   12 ar
     4    3    2 ar
     5    2    9 ar
     6   14    3 ar
     7    4    5 1 
     8    4    6 2 
     9    4   14 1 
    10    5   15 2 
    11    6   16 1 
    12    7    8 ar
    13    8   10 ar
    14    8   11 1 
    15    9   10 ar
    16   12   13 ar
    17   13   14 ar
    18   15   16 1 
    19   17   11 1 
    20   18   11 1 
@<TRIPOS>SUBSTRUCTURE
1 MOL         1
@<TRIPOS>MOLECULE
query molecule
   18    20     1     0     0
SMALL
NO_CHARGE

@<TRIPOS>ATOM
      1 C4         68.8519   53.4599   10.8304 C.ar      1 MOL     0.0725
      2 C5         68.2636   53.7380    9.5941 C.ar      1 MOL     0.0009
      3 C6         68.4342   52.8511    8.5307 C.ar      1 MOL     0.0187
      4 C7         69.3741   50.7840    7.6277 C.2       1 MOL    -0.0112
      5 C8         70.1872   51.0716    6.5715 C.2       1 MOL     0.0163
      6 C10        68.8165   49.5616    7.5547 C.2       1 MOL     0.0538
      7 N12        68.6837   54.2908   11.8718 N.ar      1 MOL    -0.2334
      8 C13        67.9489   55.4180   11.7609 C.ar      1 MOL     0.1153
      9 C15        67.5020   54.8970    9.4427 C.ar      1 MOL     0.0138
     10 C14        67.3435   55.7500   10.5418 C.ar      1 MOL     0.0445
     11 N16        67.8197   56.2262   12.8129 N.pl3     1 MOL    -0.3432
     12 C3         69.6039   52.2970   10.9914 C.ar      1 MOL     0.0295
     13 C2         69.7804   51.4124    9.9246 C.ar      1 MOL     0.0108
     14 C1         69.2093   51.6894    8.6816 C.ar      1 MOL    -0.0171
     15 C11        70.3209   50.1555    5.5995 C.2       1 MOL     0.0459
     16 S9         69.3704   48.8705    6.0954 S.3       1 MOL    -0.1054
     17 H161       68.6391   56.5343   13.3167 H         1 MOL     0.1442
     18 H162       66.9025   56.5306   13.1062 H         1 MOL     0.1442
@<TRIPOS>BOND
     1    2    1 ar
     2    1    7 ar
     3    1   12 ar
     4    3    2 ar
     5    2    9 ar
     6   14    3 ar
     7    4    5 1 
     8    4    6 2 
     9    4   14 1 
    10    5   15 2 
    11    6   16 1 
    12    7    8 ar
    13    8   10 ar
    14    8   11 1 
    15    9   10 ar
    16   12   13 ar
    17   13   14 ar
    18   15   16 1 
    19   17   11 1 
    20   18   11 1 
@<TRIPOS>SUBSTRUCTURE
1 MOL         1
@<TRIPOS>MOLECULE
query molecule
   18    20     1     0     0
SMALL
NO_CHARGE

@<TRIPOS>ATOM
      1 C4         76.4938   41.3058    8.8608 C.ar      1 MOL     0.0725
      2 C5         76.8942   42.2211    7.8842 C.ar      1 MOL     0.0009
      3 C6         75.9778   43.1476    7.3859 C.ar      1 MOL     0.0187
      4 C7         73.7247   44.0932    7.3600 C.2       1 MOL    -0.0112
      5 C8         72.7669   43.7385    6.4563 C.2       1 MOL     0.0163
      6 C10        73.6423   45.3790    7.7479 C.2       1 MOL     0.0538
      7 N12        77.3655   40.4188    9.3673 N.ar      1 MOL    -0.2334
      8 C13        78.6492   40.3776    8.9511 C.ar      1 MOL     0.1153
      9 C15        78.2123   42.2031    7.4272 C.ar      1 MOL     0.0138
     10 C14        79.1023   41.2668    7.9676 C.ar      1 MOL     0.0445
     11 N16        79.4797   39.4709    9.4655 N.pl3     1 MOL    -0.3432
     12 C3         75.1813   41.3270    9.3305 C.ar      1 MOL     0.0295
     13 C2         74.2618   42.2503    8.8265 C.ar      1 MOL     0.0108
     14 C1         74.6485   43.1584    7.8397 C.ar      1 MOL    -0.0171
     15 C11        71.8960   44.6744    6.0473 C.2       1 MOL     0.0459
     16 S9         72.3311   46.0541    6.8884 S.3       1 MOL    -0.1054
     17 H161       80.4540   39.4699    9.1995 H         1 MOL     0.1442
     18 H162       79.1347   38.7848   10.1215 H         1 MOL     0.1442
@<TRIPOS>BOND
     1    2    1 ar
     2    1    7 ar
     3    1   12 ar
     4    3    2 ar
     5    2    9 ar
     6   14    3 ar
     7    4    5 1 
     8    4    6 2 
     9    4   14 1 
    10    5   15 2 
    11    6   16 1 
    12    7    8 ar
    13    8   10 ar
    14    8   11 1 
    15    9   10 ar
    16   12   13 ar
    17   13   14 ar
    18   15   16 1 
    19   17   11 1 
    20   18   11 1 
@<TRIPOS>SUBSTRUCTURE
1 MOL         1
@<TRIPOS>MOLECULE
query molecule
   18    20     1     0     0
SMALL
NO_CHARGE

@<TRIPOS>ATOM
      1 C4         60.5748   51.2359   12.9971 C.ar      1 MOL     0.0725
      2 C5         61.6519   50.6325   12.3432 C.ar      1 MOL     0.0009
      3 C6         62.3582   51.3423   11.3717 C.ar      1 MOL     0.0187
      4 C7         62.6966   53.3802   10.0663 C.2       1 MOL    -0.0112
      5 C8         62.0507   54.1512    9.1455 C.2       1 MOL     0.0163
      6 C10        64.0372   53.4432    9.9690 C.2       1 MOL     0.0538
      7 N12        59.8943   50.5766   13.9487 N.ar      1 MOL    -0.2334
      8 C13        60.2219   49.3155   14.3020 C.ar      1 MOL     0.1153
      9 C15        62.0145   49.3280   12.6797 C.ar      1 MOL     0.0138
     10 C14        61.2880   48.6594   13.6727 C.ar      1 MOL     0.0445
     11 N16        59.5112   48.6882   15.2391 N.pl3     1 MOL    -0.3432
     12 C3         60.2154   52.5436   12.6740 C.ar      1 MOL     0.0295
     13 C2         60.9183   53.2520   11.6963 C.ar      1 MOL     0.0108
     14 C1         61.9861   52.6522   11.0268 C.ar      1 MOL    -0.0171
     15 C11        62.7867   54.8424    8.2611 C.2       1 MOL     0.0459
     16 S9         64.3725   54.4890    8.6622 S.3       1 MOL    -0.1054
     17 H161       58.5714   48.9929   15.4486 H         1 MOL     0.1442
     18 H162       59.9126   47.9082   15.7396 H         1 MOL     0.1442
@<TRIPOS>BOND
     1    2    1 ar
     2    1    7 ar
     3    1   12 ar
     4    3    2 ar
     5    2    9 ar
     6   14    3 ar
     7    4    5 1 
     8    4    6 2 
     9    4   14 1 
    10    5   15 2 
    11    6   16 1 
    12    7    8 ar
    13    8   10 ar
    14    8   11 1 
    15    9   10 ar
    16   12   13 ar
    17   13   14 ar
    18   15   16 1 
    19   17   11 1 
    20   18   11 1 
@<TRIPOS>SUBSTRUCTURE
1 MOL         1
@<TRIPOS>MOLECULE
query molecule
   18    20     1     0     0
SMALL
NO_CHARGE

@<TRIPOS>ATOM
      1 C4         78.6021   46.2722    9.3191 C.ar      1 MOL     0.0725
      2 C5         79.9735   46.2730    9.5856 C.ar      1 MOL     0.0009
      3 C6         80.4501   46.8523   10.7620 C.ar      1 MOL     0.0187
      4 C7         80.0323   48.0244   12.8651 C.2       1 MOL    -0.0112
      5 C8         80.2601   47.2594   13.9708 C.2       1 MOL     0.0163
      6 C10        80.3403   49.3223   13.0414 C.2       1 MOL     0.0538
      7 N12        78.1214   45.7028    8.2020 N.ar      1 MOL    -0.2334
      8 C13        78.9405   45.1186    7.3017 C.ar      1 MOL     0.1153
      9 C15        80.8493   45.6828    8.6741 C.ar      1 MOL     0.0138
     10 C14        80.3252   45.0982    7.5146 C.ar      1 MOL     0.0445
     11 N16        78.4267   44.5793    6.1963 N.pl3     1 MOL    -0.3432
     12 C3         77.7207   46.8496   10.2321 C.ar      1 MOL     0.0295
     13 C2         78.1987   47.4358   11.4067 C.ar      1 MOL     0.0108
     14 C1         79.5683   47.4550   11.6743 C.ar      1 MOL    -0.0171
     15 C11        80.7237   47.8590   15.0786 C.2       1 MOL     0.0459
     16 S9         80.8869   49.4689   14.6519 S.3       1 MOL    -0.1054
     17 H161       78.1958   45.1669    5.4080 H         1 MOL     0.1442
     18 H162       78.2682   43.5830    6.1472 H         1 MOL     0.1442
@<TRIPOS>BOND
     1    2    1 ar
     2    1    7 ar
     3    1   12 ar
     4    3    2 ar
     5    2    9 ar
     6   14    3 ar
     7    4    5 1 
     8    4    6 2 
     9    4   14 1 
    10    5   15 2 
    11    6   16 1 
    12    7    8 ar
    13    8   10 ar
    14    8   11 1 
    15    9   10 ar
    16   12   13 ar
    17   13   14 ar
    18   15   16 1 
    19   17   11 1 
    20   18   11 1 
@<TRIPOS>SUBSTRUCTURE
1 MOL         1
@<TRIPOS>MOLECULE
query molecule
   18    20     1     0     0
SMALL
NO_CHARGE

@<TRIPOS>ATOM
      1 C4         72.3697   49.5204   12.4840 C.ar      1 MOL     0.0725
      2 C5         71.8470   50.2258   11.3972 C.ar      1 MOL     0.0009
      3 C6         72.1326   49.8067   10.0974 C.ar      1 MOL     0.0187
      4 C7         73.2387   48.2542    8.5684 C.2       1 MOL    -0.0112
      5 C8         72.9144   49.0115    7.4817 C.2       1 MOL     0.0163
      6 C10        73.8732   47.1107    8.2518 C.2       1 MOL     0.0538
      7 N12        72.0908   49.8959   13.7427 N.ar      1 MOL    -0.2334
      8 C13        71.3045   50.9626   14.0009 C.ar      1 MOL     0.1153
      9 C15        71.0348   51.3365   11.6275 C.ar      1 MOL     0.0138
     10 C14        70.7607   51.7111   12.9486 C.ar      1 MOL     0.0445
     11 N16        71.0651   51.3141   15.2641 N.pl3     1 MOL    -0.3432
     12 C3         73.1718   48.4022   12.2603 C.ar      1 MOL     0.0295
     13 C2         73.4635   47.9868   10.9587 C.ar      1 MOL     0.0108
     14 C1         72.9584   48.6941    9.8667 C.ar      1 MOL    -0.0171
     15 C11        73.2259   48.5459    6.2619 C.2       1 MOL     0.0459
     16 S9         73.9860   47.0829    6.5488 S.3       1 MOL    -0.1054
     17 H161       71.4809   52.1533   15.6422 H         1 MOL     0.1442
     18 H162       70.4678   50.7413   15.8431 H         1 MOL     0.1442
@<TRIPOS>BOND
     1    2    1 ar
     2    1    7 ar
     3    1   12 ar
     4    3    2 ar
     5    2    9 ar
     6   14    3 ar
     7    4    5 1 
     8    4    6 2 
     9    4   14 1 
    10    5   15 2 
    11    6   16 1 
    12    7    8 ar
    13    8   10 ar
    14    8   11 1 
    15    9   10 ar
    16   12   13 ar
    17   13   14 ar
    18   15   16 1 
    19   17   11 1 
    20   18   11 1 
@<TRIPOS>SUBSTRUCTURE
1 MOL         1
@<TRIPOS>MOLECULE
query molecule
   18    20     1     0     0
SMALL
NO_CHARGE

@<TRIPOS>ATOM
      1 C4         62.0451   54.1506    7.8626 C.ar      1 MOL     0.0725
      2 C5         62.6929   53.1308    8.5642 C.ar      1 MOL     0.0009
      3 C6         63.5184   53.4486    9.6432 C.ar      1 MOL     0.0187
      4 C7         64.5355   55.1163   11.1114 C.2       1 MOL    -0.0112
      5 C8         65.7994   55.5954   10.9301 C.2       1 MOL     0.0163
      6 C10        64.1703   55.0504   12.4048 C.2       1 MOL     0.0538
      7 N12        61.2313   53.8644    6.8335 N.ar      1 MOL    -0.2334
      8 C13        61.0149   52.5910    6.4408 C.ar      1 MOL     0.1153
      9 C15        62.4961   51.8036    8.1819 C.ar      1 MOL     0.0138
     10 C14        61.6457   51.5299    7.1036 C.ar      1 MOL     0.0445
     11 N16        60.2136   52.3487    5.4035 N.pl3     1 MOL    -0.3432
     12 C3         62.2281   55.4780    8.2477 C.ar      1 MOL     0.0295
     13 C2         63.0601   55.7966    9.3238 C.ar      1 MOL     0.0108
     14 C1         63.7235   54.7859   10.0211 C.ar      1 MOL    -0.0171
     15 C11        66.5242   55.9136   12.0141 C.2       1 MOL     0.0459
     16 S9         65.5117   55.5966   13.3082 S.3       1 MOL    -0.1054
     17 H161       59.3926   52.9181    5.2558 H         1 MOL     0.1442
     18 H162       60.4275   51.5958    4.7653 H         1 MOL     0.1442
@<TRIPOS>BOND
     1    2    1 ar
     2    1    7 ar
     3    1   12 ar
     4    3    2 ar
     5    2    9 ar
     6   14    3 ar
     7    4    5 1 
     8    4    6 2 
     9    4   14 1 
    10    5   15 2 
    11    6   16 1 
    12    7    8 ar
    13    8   10 ar
    14    8   11 1 
    15    9   10 ar
    16   12   13 ar
    17   13   14 ar
    18   15   16 1 
    19   17   11 1 
    20   18   11 1 
@<TRIPOS>SUBSTRUCTURE
1 MOL         1
@<TRIPOS>MOLECULE
query molecule
   18    20     1     0     0
SMALL
NO_CHARGE

@<TRIPOS>ATOM
      1 C4         68.4280   52.6983   11.0099 C.ar      1 MOL     0.0725
      2 C5         67.1363   53.1569   11.2804 C.ar      1 MOL     0.0009
      3 C6         66.2646   52.3682   12.0319 C.ar      1 MOL     0.0187
      4 C7         65.8038   50.3135   13.2719 C.2       1 MOL    -0.0112
      5 C8         65.8079   50.3845   14.6337 C.2       1 MOL     0.0163
      6 C10        64.8823   49.4628   12.7846 C.2       1 MOL     0.0538
      7 N12        69.2885   53.4505   10.3050 N.ar      1 MOL    -0.2334
      8 C13        68.9376   54.6657    9.8331 C.ar      1 MOL     0.1153
      9 C15        66.7384   54.4060   10.8034 C.ar      1 MOL     0.0138
     10 C14        67.6520   55.1710   10.0678 C.ar      1 MOL     0.0445
     11 N16        69.8146   55.3749    9.1227 N.pl3     1 MOL    -0.3432
     12 C3         68.8355   51.4562   11.4944 C.ar      1 MOL     0.0295
     13 C2         67.9603   50.6635   12.2410 C.ar      1 MOL     0.0108
     14 C1         66.6630   51.1064   12.5034 C.ar      1 MOL    -0.0171
     15 C11        64.9471   49.6136   15.3167 C.2       1 MOL     0.0459
     16 S9         64.0921   48.7878   14.1388 S.3       1 MOL    -0.1054
     17 H161       70.1628   55.0149    8.2456 H         1 MOL     0.1442
     18 H162       70.1308   56.2723    9.4615 H         1 MOL     0.1442
@<TRIPOS>BOND
     1    2    1 ar
     2    1    7 ar
     3    1   12 ar
     4    3    2 ar
     5    2    9 ar
     6   14    3 ar
     7    4    5 1 
     8    4    6 2 
     9    4   14 1 
    10    5   15 2 
    11    6   16 1 
    12    7    8 ar
    13    8   10 ar
    14    8   11 1 
    15    9   10 ar
    16   12   13 ar
    17   13   14 ar
    18   15   16 1 
    19   17   11 1 
    20   18   11 1 
@<TRIPOS>SUBSTRUCTURE
1 MOL         1
@<TRIPOS>MOLECULE
query molecule
   18    20     1     0     0
SMALL
NO_CHARGE

@<TRIPOS>ATOM
      1 C4         74.7020   46.5989   15.2167 C.ar      1 MOL     0.0725
      2 C5         74.9282   45.9248   14.0141 C.ar      1 MOL     0.0009
      3 C6         74.5702   46.5242   12.8062 C.ar      1 MOL     0.0187
      4 C7         73.6163   48.4100   11.5793 C.2       1 MOL    -0.0112
      5 C8         74.5619   48.9861   10.7833 C.2       1 MOL     0.0163
      6 C10        72.3758   48.4671   11.0613 C.2       1 MOL     0.0538
      7 N12        75.0569   46.0476   16.3886 N.ar      1 MOL    -0.2334
      8 C13        75.6371   44.8298   16.4462 C.ar      1 MOL     0.1153
      9 C15        75.5210   44.6621   14.0370 C.ar      1 MOL     0.0138
     10 C14        75.8794   44.1060   15.2712 C.ar      1 MOL     0.0445
     11 N16        75.9591   44.3089   17.6300 N.pl3     1 MOL    -0.3432
     12 C3         74.1213   47.8663   15.1995 C.ar      1 MOL     0.0295
     13 C2         73.7566   48.4635   13.9903 C.ar      1 MOL     0.0108
     14 C1         73.9646   47.7914   12.7849 C.ar      1 MOL    -0.0171
     15 C11        74.1700   49.5474    9.6287 C.2       1 MOL     0.0459
     16 S9         72.5168   49.2930    9.5741 S.3       1 MOL    -0.1054
     17 H161       75.8261   43.3224   17.8007 H         1 MOL     0.1442
     18 H162       76.3362   44.9007   18.3564 H         1 MOL     0.1442
@<TRIPOS>BOND
     1    2    1 ar
     2    1    7 ar
     3    1   12 ar
     4    3    2 ar
     5    2    9 ar
     6   14    3 ar
     7    4    5 1 
     8    4    6 2 
     9    4   14 1 
    10    5   15 2 
    11    6   16 1 
    12    7    8 ar
    13    8   10 ar
    14    8   11 1 
    15    9   10 ar
    16   12   13 ar
    17   13   14 ar
    18   15   16 1 
    19   17   11 1 
    20   18   11 1 
@<TRIPOS>SUBSTRUCTURE
1 MOL         1
@<TRIPOS>MOLECULE
query molecule
   18    20     1     0     0
SMALL
NO_CHARGE

@<TRIPOS>ATOM
      1 C4         63.8834   47.8400   15.1648 C.ar      1 MOL     0.0725
      2 C5         62.7729   48.6457   15.4288 C.ar      1 MOL     0.0009
      3 C6         62.3744   48.8654   16.7477 C.ar      1 MOL     0.0187
      4 C7         62.6849   48.4942   19.1430 C.2       1 MOL    -0.0112
      5 C8         63.5915   48.4173   20.1588 C.2       1 MOL     0.0163
      6 C10        61.4522   48.8441   19.5533 C.2       1 MOL     0.0538
      7 N12        64.2947   47.6320   13.9036 N.ar      1 MOL    -0.2334
      8 C13        63.6525   48.1866   12.8536 C.ar      1 MOL     0.1153
      9 C15        62.0823   49.2304   14.3670 C.ar      1 MOL     0.0138
     10 C14        62.5278   48.9963   13.0603 C.ar      1 MOL     0.0445
     11 N16        64.0810   47.9421   11.6154 N.pl3     1 MOL    -0.3432
     12 C3         64.5851   47.2630   16.2224 C.ar      1 MOL     0.0295
     13 C2         64.1818   47.4773   17.5427 C.ar      1 MOL     0.0108
     14 C1         63.0646   48.2682   17.8155 C.ar      1 MOL    -0.0171
     15 C11        63.1723   48.6634   21.4099 C.2       1 MOL     0.0459
     16 S9         61.5471   49.0281   21.2477 S.3       1 MOL    -0.1054
     17 H161       64.9985   47.5466   11.4674 H         1 MOL     0.1442
     18 H162       63.4883   48.1524   10.8251 H         1 MOL     0.1442
@<TRIPOS>BOND
     1    2    1 ar
     2    1    7 ar
     3    1   12 ar
     4    3    2 ar
     5    2    9 ar
     6   14    3 ar
     7    4    5 1 
     8    4    6 2 
     9    4   14 1 
    10    5   15 2 
    11    6   16 1 
    12    7    8 ar
    13    8   10 ar
    14    8   11 1 
    15    9   10 ar
    16   12   13 ar
    17   13   14 ar
    18   15   16 1 
    19   17   11 1 
    20   18   11 1 
@<TRIPOS>SUBSTRUCTURE
1 MOL         1
@<TRIPOS>MOLECULE
query molecule
   18    20     1     0     0
SMALL
NO_CHARGE

@<TRIPOS>ATOM
      1 C4         63.7285   46.2698    6.8136 C.ar      1 MOL     0.0725
      2 C5         63.4411   47.0859    7.9105 C.ar      1 MOL     0.0009
      3 C6         63.7204   46.6353    9.2010 C.ar      1 MOL     0.0187
      4 C7         64.5688   44.9031   10.7015 C.2       1 MOL    -0.0112
      5 C8         64.7400   43.5745   10.9568 C.2       1 MOL     0.0163
      6 C10        64.7624   45.6832   11.7806 C.2       1 MOL     0.0538
      7 N12        63.4853   46.6926    5.5625 N.ar      1 MOL    -0.2334
      8 C13        62.9548   47.9107    5.3221 C.ar      1 MOL     0.1153
      9 C15        62.8873   48.3488    7.6989 C.ar      1 MOL     0.0138
     10 C14        62.6394   48.7666    6.3856 C.ar      1 MOL     0.0445
     11 N16        62.7119   48.2873    4.0669 N.pl3     1 MOL    -0.3432
     12 C3         64.2935   45.0117    7.0179 C.ar      1 MOL     0.0295
     13 C2         64.5667   44.5578    8.3106 C.ar      1 MOL     0.0108
     14 C1         64.2690   45.3597    9.4134 C.ar      1 MOL    -0.0171
     15 C11        65.0457   43.1982   12.2085 C.2       1 MOL     0.0459
     16 S9         65.1331   44.6294   13.0713 S.3       1 MOL    -0.1054
     17 H161       63.4776   48.4147    3.4207 H         1 MOL     0.1442
     18 H162       61.7621   48.4454    3.7619 H         1 MOL     0.1442
@<TRIPOS>BOND
     1    2    1 ar
     2    1    7 ar
     3    1   12 ar
     4    3    2 ar
     5    2    9 ar
     6   14    3 ar
     7    4    5 1 
     8    4    6 2 
     9    4   14 1 
    10    5   15 2 
    11    6   16 1 
    12    7    8 ar
    13    8   10 ar
    14    8   11 1 
    15    9   10 ar
    16   12   13 ar
    17   13   14 ar
    18   15   16 1 
    19   17   11 1 
    20   18   11 1 
@<TRIPOS>SUBSTRUCTURE
1 MOL         1
@<TRIPOS>MOLECULE
query molecule
   18    20     1     0     0
SMALL
NO_CHARGE

@<TRIPOS>ATOM
      1 C4         67.6491   40.8280   13.1399 C.ar      1 MOL     0.0725
      2 C5         67.5394   41.8934   12.2428 C.ar      1 MOL     0.0009
      3 C6         68.5324   42.0966   11.2840 C.ar      1 MOL     0.0187
      4 C7         70.6485   41.4372   10.2551 C.2       1 MOL    -0.0112
      5 C8         70.4763   40.9996    8.9750 C.2       1 MOL     0.0163
      6 C10        71.8162   42.0775   10.4476 C.2       1 MOL     0.0538
      7 N12        66.6947   40.6038   14.0575 N.ar      1 MOL    -0.2334
      8 C13        65.6053   41.3962   14.1477 C.ar      1 MOL     0.1153
      9 C15        66.4293   42.7356   12.3112 C.ar      1 MOL     0.0138
     10 C14        65.4486   42.4840   13.2786 C.ar      1 MOL     0.0445
     11 N16        64.6883   41.1514   15.0834 N.pl3     1 MOL    -0.3432
     12 C3         68.7500   39.9756   13.0685 C.ar      1 MOL     0.0295
     13 C2         69.7477   40.1832   12.1129 C.ar      1 MOL     0.0108
     14 C1         69.6545   41.2538   11.2224 C.ar      1 MOL    -0.0171
     15 C11        71.4572   41.2215    8.0861 C.2       1 MOL     0.0459
     16 S9         72.6303   42.0475    8.9475 S.3       1 MOL    -0.1054
     17 H161       64.0143   40.4113   14.9486 H         1 MOL     0.1442
     18 H162       64.6674   41.7058   15.9273 H         1 MOL     0.1442
@<TRIPOS>BOND
     1    2    1 ar
     2    1    7 ar
     3    1   12 ar
     4    3    2 ar
     5    2    9 ar
     6   14    3 ar
     7    4    5 1 
     8    4    6 2 
     9    4   14 1 
    10    5   15 2 
    11    6   16 1 
    12    7    8 ar
    13    8   10 ar
    14    8   11 1 
    15    9   10 ar
    16   12   13 ar
    17   13   14 ar
    18   15   16 1 
    19   17   11 1 
    20   18   11 1 
@<TRIPOS>SUBSTRUCTURE
1 MOL         1
@<TRIPOS>MOLECULE
query molecule
   18    20     1     0     0
SMALL
NO_CHARGE

@<TRIPOS>ATOM
      1 C4         69.9677   50.5978   11.4291 C.ar      1 MOL     0.0725
      2 C5         69.1212   50.6349   10.3183 C.ar      1 MOL     0.0009
      3 C6         68.1943   51.6696   10.1883 C.ar      1 MOL     0.0187
      4 C7         67.1727   53.7172   11.0458 C.2       1 MOL    -0.0112
      5 C8         67.5914   55.0143   11.0036 C.2       1 MOL     0.0163
      6 C10        65.8411   53.5815   10.9082 C.2       1 MOL     0.0538
      7 N12        70.8798   49.6214   11.5633 N.ar      1 MOL    -0.2334
      8 C13        71.0076   48.6461   10.6385 C.ar      1 MOL     0.1153
      9 C15        69.2224   49.6399    9.3458 C.ar      1 MOL     0.0138
     10 C14        70.1786   48.6300    9.5090 C.ar      1 MOL     0.0445
     11 N16        71.9132   47.6844   10.8161 N.pl3     1 MOL    -0.3432
     12 C3         69.8799   51.5962   12.3982 C.ar      1 MOL     0.0295
     13 C2         68.9470   52.6284   12.2714 C.ar      1 MOL     0.0108
     14 C1         68.0867   52.6655   11.1730 C.ar      1 MOL    -0.0171
     15 C11        66.6696   55.9794   10.8608 C.2       1 MOL     0.0459
     16 S9         65.2133   55.1616   10.7562 S.3       1 MOL    -0.1054
     17 H161       72.6715   47.5769   10.1577 H         1 MOL     0.1442
     18 H162       71.8412   47.0632   11.6091 H         1 MOL     0.1442
@<TRIPOS>BOND
     1    2    1 ar
     2    1    7 ar
     3    1   12 ar
     4    3    2 ar
     5    2    9 ar
     6   14    3 ar
     7    4    5 1 
     8    4    6 2 
     9    4   14 1 
    10    5   15 2 
    11    6   16 1 
    12    7    8 ar
    13    8   10 ar
    14    8   11 1 
    15    9   10 ar
    16   12   13 ar
    17   13   14 ar
    18   15   16 1 
    19   17   11 1 
    20   18   11 1 
@<TRIPOS>SUBSTRUCTURE
1 MOL         1
@<TRIPOS>MOLECULE
query molecule
   18    20     1     0     0
SMALL
NO_CHARGE

@<TRIPOS>ATOM
      1 C4         67.7081   43.5834   13.4508 C.ar      1 MOL     0.0725
      2 C5         67.7748   42.2158   13.7286 C.ar      1 MOL     0.0009
      3 C6         66.6397   41.4204   13.5691 C.ar      1 MOL     0.0187
      4 C7         64.2811   41.1925   12.9721 C.2       1 MOL    -0.0112
      5 C8         63.9926   40.6350   11.7615 C.2       1 MOL     0.0163
      6 C10        63.4000   40.8638   13.9345 C.2       1 MOL     0.0538
      7 N12        68.7942   44.3625   13.5793 N.ar      1 MOL    -0.2334
      8 C13        69.9793   43.8567   13.9822 C.ar      1 MOL     0.1153
      9 C15        68.9825   41.6606   14.1523 C.ar      1 MOL     0.0138
     10 C14        70.1006   42.4935   14.2823 C.ar      1 MOL     0.0445
     11 N16        71.0302   44.6658   14.1144 N.pl3     1 MOL    -0.3432
     12 C3         66.5073   44.1418   13.0150 C.ar      1 MOL     0.0295
     13 C2         65.3688   43.3466   12.8620 C.ar      1 MOL     0.0108
     14 C1         65.4218   41.9824   13.1517 C.ar      1 MOL    -0.0171
     15 C11        62.8944   39.8707   11.6550 C.2       1 MOL     0.0459
     16 S9         62.2325   39.8642   13.1920 S.3       1 MOL    -0.1054
     17 H161       71.4609   45.0719   13.2961 H         1 MOL     0.1442
     18 H162       71.3957   44.8728   15.0328 H         1 MOL     0.1442
@<TRIPOS>BOND
     1    2    1 ar
     2    1    7 ar
     3    1   12 ar
     4    3    2 ar
     5    2    9 ar
     6   14    3 ar
     7    4    5 1 
     8    4    6 2 
     9    4   14 1 
    10    5   15 2 
    11    6   16 1 
    12    7    8 ar
    13    8   10 ar
    14    8   11 1 
    15    9   10 ar
    16   12   13 ar
    17   13   14 ar
    18   15   16 1 
    19   17   11 1 
    20   18   11 1 
@<TRIPOS>SUBSTRUCTURE
1 MOL         1
@<TRIPOS>MOLECULE
query molecule
   18    20     1     0     0
SMALL
NO_CHARGE

@<TRIPOS>ATOM
      1 C4         70.2674   47.5295    7.5480 C.ar      1 MOL     0.0725
      2 C5         69.0295   47.7454    8.1587 C.ar      1 MOL     0.0009
      3 C6         68.7587   48.9751    8.7595 C.ar      1 MOL     0.0187
      4 C7         69.4595   51.2374    9.3613 C.2       1 MOL    -0.0112
      5 C8         70.2789   51.7552   10.3206 C.2       1 MOL     0.0163
      6 C10        68.4420   52.0537    9.0313 C.2       1 MOL     0.0538
      7 N12        70.5405   46.3599    6.9474 N.ar      1 MOL    -0.2334
      8 C13        69.6369   45.3573    6.9159 C.ar      1 MOL     0.1153
      9 C15        68.0740   46.7288    8.1495 C.ar      1 MOL     0.0138
     10 C14        68.3828   45.5167    7.5201 C.ar      1 MOL     0.0445
     11 N16        69.9520   44.2049    6.3250 N.pl3     1 MOL    -0.3432
     12 C3         71.2217   48.5458    7.5431 C.ar      1 MOL     0.0295
     13 C2         70.9530   49.7747    8.1508 C.ar      1 MOL     0.0108
     14 C1         69.7250   49.9944    8.7767 C.ar      1 MOL    -0.0171
     15 C11        69.9837   52.9611   10.8308 C.2       1 MOL     0.0459
     16 S9         68.6042   53.4403   10.0136 S.3       1 MOL    -0.1054
     17 H161       69.7314   43.3289    6.7766 H         1 MOL     0.1442
     18 H162       70.4114   44.2077    5.4255 H         1 MOL     0.1442
@<TRIPOS>BOND
     1    2    1 ar
     2    1    7 ar
     3    1   12 ar
     4    3    2 ar
     5    2    9 ar
     6   14    3 ar
     7    4    5 1 
     8    4    6 2 
     9    4   14 1 
    10    5   15 2 
    11    6   16 1 
    12    7    8 ar
    13    8   10 ar
    14    8   11 1 
    15    9   10 ar
    16   12   13 ar
    17   13   14 ar
    18   15   16 1 
    19   17   11 1 
    20   18   11 1 
@<TRIPOS>SUBSTRUCTURE
1 MOL         1
@<TRIPOS>MOLECULE
query molecule
   18    20     1     0     0
SMALL
NO_CHARGE

@<TRIPOS>ATOM
      1 C4         78.4891   44.9083    9.5782 C.ar      1 MOL     0.0725
      2 C5         79.6724   44.4879    8.9658 C.ar      1 MOL     0.0009
      3 C6         79.6298   43.5000    7.9815 C.ar      1 MOL     0.0187
      4 C7         78.3539   41.9266    6.6149 C.2       1 MOL    -0.0112
      5 C8         78.1052   40.6214    6.9219 C.2       1 MOL     0.0163
      6 C10        78.4824   42.1490    5.2941 C.2       1 MOL     0.0538
      7 N12        78.5063   45.8713   10.5138 N.ar      1 MOL    -0.2334
      8 C13        79.6594   46.4604   10.8960 C.ar      1 MOL     0.1153
      9 C15        80.8829   45.0716    9.3404 C.ar      1 MOL     0.0138
     10 C14        80.8763   46.0715   10.3207 C.ar      1 MOL     0.0445
     11 N16        79.6373   47.4006   11.8405 N.pl3     1 MOL    -0.3432
     12 C3         77.2748   44.3375    9.1993 C.ar      1 MOL     0.0295
     13 C2         77.2330   43.3434    8.2186 C.ar      1 MOL     0.0108
     14 C1         78.4116   42.9062    7.6121 C.ar      1 MOL    -0.0171
     15 C11        78.0422   39.7298    5.9204 C.2       1 MOL     0.0459
     16 S9         78.2943   40.6323    4.5338 S.3       1 MOL    -0.1054
     17 H161       80.0632   48.3000   11.6680 H         1 MOL     0.1442
     18 H162       79.1947   47.2135   12.7289 H         1 MOL     0.1442
@<TRIPOS>BOND
     1    2    1 ar
     2    1    7 ar
     3    1   12 ar
     4    3    2 ar
     5    2    9 ar
     6   14    3 ar
     7    4    5 1 
     8    4    6 2 
     9    4   14 1 
    10    5   15 2 
    11    6   16 1 
    12    7    8 ar
    13    8   10 ar
    14    8   11 1 
    15    9   10 ar
    16   12   13 ar
    17   13   14 ar
    18   15   16 1 
    19   17   11 1 
    20   18   11 1 
@<TRIPOS>SUBSTRUCTURE
1 MOL         1
@<TRIPOS>MOLECULE
query molecule
   18    20     1     0     0
SMALL
NO_CHARGE

@<TRIPOS>ATOM
      1 C4         76.6694   44.2666    7.0916 C.ar      1 MOL     0.0725
      2 C5         77.3609   43.2633    7.7751 C.ar      1 MOL     0.0009
      3 C6         78.1059   43.5854    8.9098 C.ar      1 MOL     0.0187
      4 C7         78.9170   45.2455   10.5091 C.2       1 MOL    -0.0112
      5 C8         79.9492   46.1351   10.4541 C.2       1 MOL     0.0163
      6 C10        78.6720   44.7886   11.7507 C.2       1 MOL     0.0538
      7 N12        75.9310   43.9743    6.0087 N.ar      1 MOL    -0.2334
      8 C13        75.8345   42.7107    5.5432 C.ar      1 MOL     0.1153
      9 C15        77.2875   41.9471    7.3183 C.ar      1 MOL     0.0138
     10 C14        76.5141   41.6670    6.1851 C.ar      1 MOL     0.0445
     11 N16        75.1056   42.4634    4.4550 N.pl3     1 MOL    -0.3432
     12 C3         76.7287   45.5818    7.5504 C.ar      1 MOL     0.0295
     13 C2         77.4804   45.9054    8.6826 C.ar      1 MOL     0.0108
     14 C1         78.1869   44.9125    9.3631 C.ar      1 MOL    -0.0171
     15 C11        80.6003   46.4300   11.5902 C.2       1 MOL     0.0459
     16 S9         79.8228   45.5319   12.7690 S.3       1 MOL    -0.1054
     17 H161       75.3165   41.6624    3.8771 H         1 MOL     0.1442
     18 H162       74.3422   43.0771    4.2084 H         1 MOL     0.1442
@<TRIPOS>BOND
     1    2    1 ar
     2    1    7 ar
     3    1   12 ar
     4    3    2 ar
     5    2    9 ar
     6   14    3 ar
     7    4    5 1 
     8    4    6 2 
     9    4   14 1 
    10    5   15 2 
    11    6   16 1 
    12    7    8 ar
    13    8   10 ar
    14    8   11 1 
    15    9   10 ar
    16   12   13 ar
    17   13   14 ar
    18   15   16 1 
    19   17   11 1 
    20   18   11 1 
@<TRIPOS>SUBSTRUCTURE
1 MOL         1
@<TRIPOS>MOLECULE
query molecule
   18    20     1     0     0
SMALL
NO_CHARGE

@<TRIPOS>ATOM
      1 C4         70.3888   41.4192   14.0282 C.ar      1 MOL     0.0725
      2 C5         69.4167   40.4526   13.7585 C.ar      1 MOL     0.0009
      3 C6         68.1371   40.8476   13.3672 C.ar      1 MOL     0.0187
      4 C7         66.5321   42.6172   12.8534 C.2       1 MOL    -0.0112
      5 C8         65.8721   43.6196   13.5009 C.2       1 MOL     0.0163
      6 C10        65.8565   42.1286   11.7973 C.2       1 MOL     0.0538
      7 N12        71.6317   41.0594   14.3874 N.ar      1 MOL    -0.2334
      8 C13        71.9824   39.7609   14.5035 C.ar      1 MOL     0.1153
      9 C15        69.7433   39.1012   13.8738 C.ar      1 MOL     0.0138
     10 C14        71.0448   38.7503   14.2531 C.ar      1 MOL     0.0445
     11 N16        73.2214   39.4442   14.8793 N.pl3     1 MOL    -0.3432
     12 C3         70.0721   42.7711   13.9027 C.ar      1 MOL     0.0295
     13 C2         68.7888   43.1667   13.5176 C.ar      1 MOL     0.0108
     14 C1         67.8067   42.2088   13.2608 C.ar      1 MOL    -0.0171
     15 C11        64.6599   43.9812   13.0521 C.2       1 MOL     0.0459
     16 S9         64.3865   42.9937   11.7290 S.3       1 MOL    -0.1054
     17 H161       73.7380   38.7391   14.3733 H         1 MOL     0.1442
     18 H162       73.6437   39.9095   15.6701 H         1 MOL     0.1442
@<TRIPOS>BOND
     1    2    1 ar
     2    1    7 ar
     3    1   12 ar
     4    3    2 ar
     5    2    9 ar
     6   14    3 ar
     7    4    5 1 
     8    4    6 2 
     9    4   14 1 
    10    5   15 2 
    11    6   16 1 
    12    7    8 ar
    13    8   10 ar
    14    8   11 1 
    15    9   10 ar
    16   12   13 ar
    17   13   14 ar
    18   15   16 1 
    19   17   11 1 
    20   18   11 1 
@<TRIPOS>SUBSTRUCTURE
1 MOL         1
@<TRIPOS>MOLECULE
query molecule
   18    20     1     0     0
SMALL
NO_CHARGE

@<TRIPOS>ATOM
      1 C4         64.8401   48.2126    8.7047 C.ar      1 MOL     0.0725
      2 C5         65.3846   47.0367    9.2271 C.ar      1 MOL     0.0009
      3 C6         64.8658   46.4966   10.4043 C.ar      1 MOL     0.0187
      4 C7         63.2744   46.5923   12.2562 C.2       1 MOL    -0.0112
      5 C8         61.9610   46.2322   12.3272 C.2       1 MOL     0.0163
      6 C10        63.9612   46.3305   13.3832 C.2       1 MOL     0.0538
      7 N12        65.3122   48.7380    7.5627 N.ar      1 MOL    -0.2334
      8 C13        66.3247   48.1552    6.8858 C.ar      1 MOL     0.1153
      9 C15        66.4355   46.4108    8.5563 C.ar      1 MOL     0.0138
     10 C14        66.9134   46.9792    7.3690 C.ar      1 MOL     0.0445
     11 N16        66.7770   48.7169    5.7649 N.pl3     1 MOL    -0.3432
     12 C3         63.7816   48.8359    9.3639 C.ar      1 MOL     0.0295
     13 C2         63.2667   48.2988   10.5464 C.ar      1 MOL     0.0108
     14 C1         63.8141   47.1329   11.0841 C.ar      1 MOL    -0.0171
     15 C11        61.5048   45.7007   13.4722 C.2       1 MOL     0.0459
     16 S9         62.8415   45.6508   14.4778 S.3       1 MOL    -0.1054
     17 H161       66.6672   48.2403    4.8813 H         1 MOL     0.1442
     18 H162       67.2296   49.6191    5.7992 H         1 MOL     0.1442
@<TRIPOS>BOND
     1    2    1 ar
     2    1    7 ar
     3    1   12 ar
     4    3    2 ar
     5    2    9 ar
     6   14    3 ar
     7    4    5 1 
     8    4    6 2 
     9    4   14 1 
    10    5   15 2 
    11    6   16 1 
    12    7    8 ar
    13    8   10 ar
    14    8   11 1 
    15    9   10 ar
    16   12   13 ar
    17   13   14 ar
    18   15   16 1 
    19   17   11 1 
    20   18   11 1 
@<TRIPOS>SUBSTRUCTURE
1 MOL         1
@<TRIPOS>MOLECULE
query molecule
   18    20     1     0     0
SMALL
NO_CHARGE

@<TRIPOS>ATOM
      1 C4         72.5443   45.7376    7.1626 C.ar      1 MOL     0.0725
      2 C5         72.9724   47.0656    7.0915 C.ar      1 MOL     0.0009
      3 C6         72.9022   47.8776    8.2239 C.ar      1 MOL     0.0187
      4 C7         72.3255   48.1810   10.5791 C.2       1 MOL    -0.0112
      5 C8         71.5497   49.3018   10.6176 C.2       1 MOL     0.0163
      6 C10        72.9559   47.9281   11.7406 C.2       1 MOL     0.0538
      7 N12        72.6217   44.9343    6.0894 N.ar      1 MOL    -0.2334
      8 C13        73.1086   45.3790    4.9113 C.ar      1 MOL     0.1153
      9 C15        73.4763   47.5599    5.8881 C.ar      1 MOL     0.0138
     10 C14        73.5441   46.7044    4.7816 C.ar      1 MOL     0.0445
     11 N16        73.1531   44.5558    3.8640 N.pl3     1 MOL    -0.3432
     12 C3         72.0514   45.2344    8.3657 C.ar      1 MOL     0.0295
     13 C2         71.9746   46.0495    9.4978 C.ar      1 MOL     0.0108
     14 C1         72.3857   47.3816    9.4324 C.ar      1 MOL    -0.0171
     15 C11        71.5171   50.0181   11.7523 C.2       1 MOL     0.0459
     16 S9         72.5151   49.1860   12.8069 S.3       1 MOL    -0.1054
     17 H161       73.2151   44.9315    2.9286 H         1 MOL     0.1442
     18 H162       73.1248   43.5562    4.0059 H         1 MOL     0.1442
@<TRIPOS>BOND
     1    2    1 ar
     2    1    7 ar
     3    1   12 ar
     4    3    2 ar
     5    2    9 ar
     6   14    3 ar
     7    4    5 1 
     8    4    6 2 
     9    4   14 1 
    10    5   15 2 
    11    6   16 1 
    12    7    8 ar
    13    8   10 ar
    14    8   11 1 
    15    9   10 ar
    16   12   13 ar
    17   13   14 ar
    18   15   16 1 
    19   17   11 1 
    20   18   11 1 
@<TRIPOS>SUBSTRUCTURE
1 MOL         1
@<TRIPOS>MOLECULE
query molecule
   18    20     1     0     0
SMALL
NO_CHARGE

@<TRIPOS>ATOM
      1 C4         73.1805   49.2904    9.4765 C.ar      1 MOL     0.0725
      2 C5         73.3048   48.6198   10.6958 C.ar      1 MOL     0.0009
      3 C6         74.4051   47.7923   10.9221 C.ar      1 MOL     0.0187
      4 C7         76.4976   46.7938   10.1501 C.2       1 MOL    -0.0112
      5 C8         77.6896   47.3240   10.5472 C.2       1 MOL     0.0163
      6 C10        76.5173   45.4522   10.0496 C.2       1 MOL     0.0538
      7 N12        72.1392   50.1065    9.2463 N.ar      1 MOL    -0.2334
      8 C13        71.1807   50.3035   10.1764 C.ar      1 MOL     0.1153
      9 C15        72.3296   48.7963   11.6777 C.ar      1 MOL     0.0138
     10 C14        71.2512   49.6495   11.4135 C.ar      1 MOL     0.0445
     11 N16        70.1535   51.1079    9.9036 N.pl3     1 MOL    -0.3432
     12 C3         74.1582   49.1278    8.4960 C.ar      1 MOL     0.0295
     13 C2         75.2564   48.2937    8.7201 C.ar      1 MOL     0.0108
     14 C1         75.3813   47.6078    9.9291 C.ar      1 MOL    -0.0171
     15 C11        78.7198   46.4909   10.7626 C.2       1 MOL     0.0459
     16 S9         78.1020   44.9659   10.4572 S.3       1 MOL    -0.1054
     17 H161       69.7120   51.0731    8.9959 H         1 MOL     0.1442
     18 H162       69.8167   51.7522   10.6046 H         1 MOL     0.1442
@<TRIPOS>BOND
     1    2    1 ar
     2    1    7 ar
     3    1   12 ar
     4    3    2 ar
     5    2    9 ar
     6   14    3 ar
     7    4    5 1 
     8    4    6 2 
     9    4   14 1 
    10    5   15 2 
    11    6   16 1 
    12    7    8 ar
    13    8   10 ar
    14    8   11 1 
    15    9   10 ar
    16   12   13 ar
    17   13   14 ar
    18   15   16 1 
    19   17   11 1 
    20   18   11 1 
@<TRIPOS>SUBSTRUCTURE
1 MOL         1
@<TRIPOS>MOLECULE
query molecule
   18    20     1     0     0
SMALL
NO_CHARGE

@<TRIPOS>ATOM
      1 C4         75.7124   45.8773    8.5375 C.ar      1 MOL     0.0725
      2 C5         74.7672   45.9999    9.5591 C.ar      1 MOL     0.0009
      3 C6         73.4167   45.7849    9.2825 C.ar      1 MOL     0.0187
      4 C7         71.6424   45.2323    7.6958 C.2       1 MOL    -0.0112
      5 C8         71.0914   43.9953    7.8574 C.2       1 MOL     0.0163
      6 C10        70.7574   46.1621    7.2925 C.2       1 MOL     0.0538
      7 N12        77.0190   46.0611    8.7872 N.ar      1 MOL    -0.2334
      8 C13        77.4619   46.3724   10.0240 C.ar      1 MOL     0.1153
      9 C15        75.1895   46.3257   10.8482 C.ar      1 MOL     0.0138
     10 C14        76.5567   46.5160   11.0837 C.ar      1 MOL     0.0445
     11 N16        78.7651   46.5641   10.2281 N.pl3     1 MOL    -0.3432
     12 C3         75.2979   45.5397    7.2499 C.ar      1 MOL     0.0295
     13 C2         73.9448   45.3313    6.9716 C.ar      1 MOL     0.0108
     14 C1         72.9917   45.4664    7.9821 C.ar      1 MOL    -0.0171
     15 C11        69.7867   43.8360    7.5852 C.2       1 MOL     0.0459
     16 S9         69.2615   45.3569    7.1253 S.3       1 MOL    -0.1054
     17 H161       79.2913   45.9059   10.7849 H         1 MOL     0.1442
     18 H162       79.2264   47.3675    9.8258 H         1 MOL     0.1442
@<TRIPOS>BOND
     1    2    1 ar
     2    1    7 ar
     3    1   12 ar
     4    3    2 ar
     5    2    9 ar
     6   14    3 ar
     7    4    5 1 
     8    4    6 2 
     9    4   14 1 
    10    5   15 2 
    11    6   16 1 
    12    7    8 ar
    13    8   10 ar
    14    8   11 1 
    15    9   10 ar
    16   12   13 ar
    17   13   14 ar
    18   15   16 1 
    19   17   11 1 
    20   18   11 1 
@<TRIPOS>SUBSTRUCTURE
1 MOL         1
@<TRIPOS>MOLECULE
query molecule
   18    20     1     0     0
SMALL
NO_CHARGE

@<TRIPOS>ATOM
      1 C4         74.2824   51.7663    7.7744 C.ar      1 MOL     0.0725
      2 C5         73.5148   52.7493    7.1448 C.ar      1 MOL     0.0009
      3 C6         73.9247   54.0821    7.1892 C.ar      1 MOL     0.0187
      4 C7         75.5216   55.7830    7.9160 C.2       1 MOL    -0.0112
      5 C8         76.7701   56.1328    7.4935 C.2       1 MOL     0.0163
      6 C10        74.7774   56.8330    8.3085 C.2       1 MOL     0.0538
      7 N12        73.9156   50.4754    7.7268 N.ar      1 MOL    -0.2334
      8 C13        72.7983   50.0850    7.0772 C.ar      1 MOL     0.1153
      9 C15        72.3511   52.3818    6.4688 C.ar      1 MOL     0.0138
     10 C14        71.9869   51.0301    6.4357 C.ar      1 MOL     0.0445
     11 N16        72.4584   48.7962    7.0673 N.pl3     1 MOL    -0.3432
     12 C3         75.4530   52.1257    8.4409 C.ar      1 MOL     0.0295
     13 C2         75.8597   53.4613    8.4913 C.ar      1 MOL     0.0108
     14 C1         75.0914   54.4522    7.8784 C.ar      1 MOL    -0.0171
     15 C11        77.1196   57.4281    7.5351 C.2       1 MOL     0.0459
     16 S9         75.7644   58.2135    8.1243 S.3       1 MOL    -0.1054
     17 H161       72.3057   48.3075    7.9379 H         1 MOL     0.1442
     18 H162       72.3536   48.3083    6.1892 H         1 MOL     0.1442
@<TRIPOS>BOND
     1    2    1 ar
     2    1    7 ar
     3    1   12 ar
     4    3    2 ar
     5    2    9 ar
     6   14    3 ar
     7    4    5 1 
     8    4    6 2 
     9    4   14 1 
    10    5   15 2 
    11    6   16 1 
    12    7    8 ar
    13    8   10 ar
    14    8   11 1 
    15    9   10 ar
    16   12   13 ar
    17   13   14 ar
    18   15   16 1 
    19   17   11 1 
    20   18   11 1 
@<TRIPOS>SUBSTRUCTURE
1 MOL         1
@<TRIPOS>MOLECULE
query molecule
   18    20     1     0     0
SMALL
NO_CHARGE

@<TRIPOS>ATOM
      1 C4         74.7153   41.0985   17.8135 C.ar      1 MOL     0.0725
      2 C5         73.5759   40.7947   18.5628 C.ar      1 MOL     0.0009
      3 C6         72.3955   40.4332   17.9127 C.ar      1 MOL     0.0187
      4 C7         71.1591   40.0138   15.8470 C.2       1 MOL    -0.0112
      5 C8         70.3220   39.0748   16.3736 C.2       1 MOL     0.0163
      6 C10        70.7124   40.5393   14.6917 C.2       1 MOL     0.0538
      7 N12        75.8663   41.4298   18.4205 N.ar      1 MOL    -0.2334
      8 C13        75.9618   41.4845   19.7661 C.ar      1 MOL     0.1153
      9 C15        73.6374   40.8465   19.9556 C.ar      1 MOL     0.0138
     10 C14        74.8477   41.1978   20.5660 C.ar      1 MOL     0.0445
     11 N16        77.1173   41.8344   20.3309 N.pl3     1 MOL    -0.3432
     12 C3         74.6634   41.0365   16.4217 C.ar      1 MOL     0.0295
     13 C2         73.4795   40.6812   15.7706 C.ar      1 MOL     0.0108
     14 C1         72.3320   40.3909   16.5101 C.ar      1 MOL    -0.0171
     15 C11        69.2015   38.7683   15.7012 C.2       1 MOL     0.0459
     16 S9         69.2348   39.7556   14.3505 S.3       1 MOL    -0.1054
     17 H161       77.1235   42.2572   21.2481 H         1 MOL     0.1442
     18 H162       77.9866   41.6768   19.8416 H         1 MOL     0.1442
@<TRIPOS>BOND
     1    2    1 ar
     2    1    7 ar
     3    1   12 ar
     4    3    2 ar
     5    2    9 ar
     6   14    3 ar
     7    4    5 1 
     8    4    6 2 
     9    4   14 1 
    10    5   15 2 
    11    6   16 1 
    12    7    8 ar
    13    8   10 ar
    14    8   11 1 
    15    9   10 ar
    16   12   13 ar
    17   13   14 ar
    18   15   16 1 
    19   17   11 1 
    20   18   11 1 
@<TRIPOS>SUBSTRUCTURE
1 MOL         1
@<TRIPOS>MOLECULE
query molecule
   18    20     1     0     0
SMALL
NO_CHARGE

@<TRIPOS>ATOM
      1 C4         60.9161   45.5151    8.4476 C.ar      1 MOL     0.0725
      2 C5         61.8555   44.6688    9.0420 C.ar      1 MOL     0.0009
      3 C6         62.7200   45.1691   10.0160 C.ar      1 MOL     0.0187
      4 C7         63.5223   47.0311   11.3800 C.2       1 MOL    -0.0112
      5 C8         64.3207   48.1093   11.1353 C.2       1 MOL     0.0163
      6 C10        63.6161   46.5731   12.6417 C.2       1 MOL     0.0538
      7 N12        60.0622   45.0486    7.5223 N.ar      1 MOL    -0.2334
      8 C13        60.0833   43.7559    7.1335 C.ar      1 MOL     0.1153
      9 C15        61.9087   43.3280    8.6600 C.ar      1 MOL     0.0138
     10 C14        61.0104   42.8652    7.6906 C.ar      1 MOL     0.0445
     11 N16        59.2308   43.3349    6.1994 N.pl3     1 MOL    -0.3432
     12 C3         60.8498   46.8530    8.8341 C.ar      1 MOL     0.0295
     13 C2         61.7202   47.3555    9.8045 C.ar      1 MOL     0.0108
     14 C1         62.6720   46.5214   10.3928 C.ar      1 MOL    -0.0171
     15 C11        65.1010   48.5654   12.1277 C.2       1 MOL     0.0459
     16 S9         64.7621   47.5657   13.4262 S.3       1 MOL    -0.1054
     17 H161       58.7634   42.4459    6.3059 H         1 MOL     0.1442
     18 H162       59.0522   43.9049    5.3850 H         1 MOL     0.1442
@<TRIPOS>BOND
     1    2    1 ar
     2    1    7 ar
     3    1   12 ar
     4    3    2 ar
     5    2    9 ar
     6   14    3 ar
     7    4    5 1 
     8    4    6 2 
     9    4   14 1 
    10    5   15 2 
    11    6   16 1 
    12    7    8 ar
    13    8   10 ar
    14    8   11 1 
    15    9   10 ar
    16   12   13 ar
    17   13   14 ar
    18   15   16 1 
    19   17   11 1 
    20   18   11 1 
@<TRIPOS>SUBSTRUCTURE
1 MOL         1
@<TRIPOS>MOLECULE
query molecule
   18    20     1     0     0
SMALL
NO_CHARGE

@<TRIPOS>ATOM
      1 C4         68.6132   43.9186    8.4532 C.ar      1 MOL     0.0725
      2 C5         69.9610   43.5900    8.2871 C.ar      1 MOL     0.0009
      3 C6         70.5263   42.5743    9.0585 C.ar      1 MOL     0.0187
      4 C7         70.3123   40.8586   10.7854 C.2       1 MOL    -0.0112
      5 C8         71.1667   41.1245   11.8145 C.2       1 MOL     0.0163
      6 C10        70.0430   39.5483   10.6405 C.2       1 MOL     0.0538
      7 N12        68.0452   44.8797    7.7071 N.ar      1 MOL    -0.2334
      8 C13        68.7519   45.5602    6.7795 C.ar      1 MOL     0.1153
      9 C15        70.7224   44.2768    7.3411 C.ar      1 MOL     0.0138
     10 C14        70.1092   45.2774    6.5772 C.ar      1 MOL     0.0445
     11 N16        68.1566   46.5193    6.0707 N.pl3     1 MOL    -0.3432
     12 C3         67.8440   43.2274    9.3882 C.ar      1 MOL     0.0295
     13 C2         68.4120   42.2150   10.1656 C.ar      1 MOL     0.0108
     14 C1         69.7612   41.8901   10.0175 C.ar      1 MOL    -0.0171
     15 C11        71.6482   40.0947   12.5281 C.2       1 MOL     0.0459
     16 S9         70.9432   38.7396   11.8445 S.3       1 MOL    -0.1054
     17 H161       67.1556   46.6416    6.1273 H         1 MOL     0.1442
     18 H162       68.7065   47.1237    5.4771 H         1 MOL     0.1442
@<TRIPOS>BOND
     1    2    1 ar
     2    1    7 ar
     3    1   12 ar
     4    3    2 ar
     5    2    9 ar
     6   14    3 ar
     7    4    5 1 
     8    4    6 2 
     9    4   14 1 
    10    5   15 2 
    11    6   16 1 
    12    7    8 ar
    13    8   10 ar
    14    8   11 1 
    15    9   10 ar
    16   12   13 ar
    17   13   14 ar
    18   15   16 1 
    19   17   11 1 
    20   18   11 1 
@<TRIPOS>SUBSTRUCTURE
1 MOL         1
@<TRIPOS>MOLECULE
query molecule
   18    20     1     0     0
SMALL
NO_CHARGE

@<TRIPOS>ATOM
      1 C4         67.8392   53.5704   11.0696 C.ar      1 MOL     0.0725
      2 C5         68.3901   53.7833    9.8035 C.ar      1 MOL     0.0009
      3 C6         68.8669   52.7001    9.0646 C.ar      1 MOL     0.0187
      4 C7         69.2789   50.3011    8.8495 C.2       1 MOL    -0.0112
      5 C8         68.6483   49.9057    7.7068 C.2       1 MOL     0.0163
      6 C10        70.3716   49.5701    9.1364 C.2       1 MOL     0.0538
      7 N12        67.3571   54.5969   11.7886 N.ar      1 MOL    -0.2334
      8 C13        67.3909   55.8622   11.3188 C.ar      1 MOL     0.1153
      9 C15        68.4458   55.0789    9.2892 C.ar      1 MOL     0.0138
     10 C14        67.9400   56.1339   10.0587 C.ar      1 MOL     0.0445
     11 N16        66.9181   56.8566   12.0699 N.pl3     1 MOL    -0.3432
     12 C3         67.7695   52.2764   11.5838 C.ar      1 MOL     0.0295
     13 C2         68.2533   51.1926   10.8467 C.ar      1 MOL     0.0108
     14 C1         68.8192   51.3973    9.5874 C.ar      1 MOL    -0.0171
     15 C11        69.1471   48.8588    7.0308 C.2       1 MOL     0.0459
     16 S9         70.4950   48.3929    7.9064 S.3       1 MOL    -0.1054
     17 H161       67.1115   56.8769   13.0610 H         1 MOL     0.1442
     18 H162       66.3665   57.5899   11.6479 H         1 MOL     0.1442
@<TRIPOS>BOND
     1    2    1 ar
     2    1    7 ar
     3    1   12 ar
     4    3    2 ar
     5    2    9 ar
     6   14    3 ar
     7    4    5 1 
     8    4    6 2 
     9    4   14 1 
    10    5   15 2 
    11    6   16 1 
    12    7    8 ar
    13    8   10 ar
    14    8   11 1 
    15    9   10 ar
    16   12   13 ar
    17   13   14 ar
    18   15   16 1 
    19   17   11 1 
    20   18   11 1 
@<TRIPOS>SUBSTRUCTURE
1 MOL         1
@<TRIPOS>MOLECULE
query molecule
   18    20     1     0     0
SMALL
NO_CHARGE

@<TRIPOS>ATOM
      1 C4         69.8684   40.2313   15.0396 C.ar      1 MOL     0.0725
      2 C5         69.5052   39.4789   16.1594 C.ar      1 MOL     0.0009
      3 C6         70.3219   39.4822   17.2906 C.ar      1 MOL     0.0187
      4 C7         72.3375   40.2420   18.4445 C.2       1 MOL    -0.0112
      5 C8         72.7387   39.0877   19.0498 C.2       1 MOL     0.0163
      6 C10        72.8426   41.3491   19.0187 C.2       1 MOL     0.0538
      7 N12        69.0865   40.2570   13.9482 N.ar      1 MOL    -0.2334
      8 C13        67.9321   39.5590   13.8933 C.ar      1 MOL     0.1153
      9 C15        68.3213   38.7413   16.1350 C.ar      1 MOL     0.0138
     10 C14        67.5239   38.7809   14.9846 C.ar      1 MOL     0.0445
     11 N16        67.1919   39.5963   12.7854 N.pl3     1 MOL    -0.3432
     12 C3         71.0441   40.9803   15.0625 C.ar      1 MOL     0.0295
     13 C2         71.8653   40.9780   16.1927 C.ar      1 MOL     0.0108
     14 C1         71.5186   40.2175   17.3104 C.ar      1 MOL    -0.0171
     15 C11        73.5401   39.1738   20.1232 C.2       1 MOL     0.0459
     16 S9         73.7933   40.8147   20.3319 S.3       1 MOL    -0.1054
     17 H161       66.8483   40.4799   12.4371 H         1 MOL     0.1442
     18 H162       66.9746   38.7409   12.2943 H         1 MOL     0.1442
@<TRIPOS>BOND
     1    2    1 ar
     2    1    7 ar
     3    1   12 ar
     4    3    2 ar
     5    2    9 ar
     6   14    3 ar
     7    4    5 1 
     8    4    6 2 
     9    4   14 1 
    10    5   15 2 
    11    6   16 1 
    12    7    8 ar
    13    8   10 ar
    14    8   11 1 
    15    9   10 ar
    16   12   13 ar
    17   13   14 ar
    18   15   16 1 
    19   17   11 1 
    20   18   11 1 
@<TRIPOS>SUBSTRUCTURE
1 MOL         1
@<TRIPOS>MOLECULE
query molecule
   18    20     1     0     0
SMALL
NO_CHARGE

@<TRIPOS>ATOM
      1 C4         68.5575   50.0280    8.4812 C.ar      1 MOL     0.0725
      2 C5         68.6366   49.0084    9.4331 C.ar      1 MOL     0.0009
      3 C6         69.3207   49.2288   10.6288 C.ar      1 MOL     0.0187
      4 C7         70.6255   50.6978   12.0818 C.2       1 MOL    -0.0112
      5 C8         71.8485   50.1460   12.3257 C.2       1 MOL     0.0163
      6 C10        70.1941   51.4987   13.0732 C.2       1 MOL     0.0538
      7 N12        67.8873   49.8425    7.3324 N.ar      1 MOL    -0.2334
      8 C13        67.2740   48.6718    7.0569 C.ar      1 MOL     0.1153
      9 C15        68.0187   47.7837    9.1787 C.ar      1 MOL     0.0138
     10 C14        67.3285   47.6126    7.9724 C.ar      1 MOL     0.0445
     11 N16        66.6332   48.5206    5.8979 N.pl3     1 MOL    -0.3432
     12 C3         69.1623   51.2583    8.7350 C.ar      1 MOL     0.0295
     13 C2         69.8533   51.4766    9.9294 C.ar      1 MOL     0.0108
     14 C1         69.9507   50.4590   10.8797 C.ar      1 MOL    -0.0171
     15 C11        72.4562   50.4270   13.4891 C.2       1 MOL     0.0459
     16 S9         71.4039   51.4627   14.2769 S.3       1 MOL    -0.1054
     17 H161       65.8592   49.1265    5.6660 H         1 MOL     0.1442
     18 H162       66.9219   47.8002    5.2516 H         1 MOL     0.1442
@<TRIPOS>BOND
     1    2    1 ar
     2    1    7 ar
     3    1   12 ar
     4    3    2 ar
     5    2    9 ar
     6   14    3 ar
     7    4    5 1 
     8    4    6 2 
     9    4   14 1 
    10    5   15 2 
    11    6   16 1 
    12    7    8 ar
    13    8   10 ar
    14    8   11 1 
    15    9   10 ar
    16   12   13 ar
    17   13   14 ar
    18   15   16 1 
    19   17   11 1 
    20   18   11 1 
@<TRIPOS>SUBSTRUCTURE
1 MOL         1
@<TRIPOS>MOLECULE
query molecule
   18    20     1     0     0
SMALL
NO_CHARGE

@<TRIPOS>ATOM
      1 C4         59.5061   48.5846   14.5354 C.ar      1 MOL     0.0725
      2 C5         60.1735   48.1227   15.6725 C.ar      1 MOL     0.0009
      3 C6         60.6013   49.0309   16.6413 C.ar      1 MOL     0.0187
      4 C7         60.7971   51.3287   17.4497 C.2       1 MOL    -0.0112
      5 C8         60.1868   51.3857   18.6679 C.2       1 MOL     0.0163
      6 C10        61.8219   52.1917   17.3253 C.2       1 MOL     0.0538
      7 N12        59.0692   47.7252   13.6007 N.ar      1 MOL    -0.2334
      8 C13        59.2612   46.3945   13.7238 C.ar      1 MOL     0.1153
      9 C15        60.3937   46.7540   15.8294 C.ar      1 MOL     0.0138
     10 C14        59.9320   45.8774   14.8399 C.ar      1 MOL     0.0445
     11 N16        58.8279   45.5750   12.7660 N.pl3     1 MOL    -0.3432
     12 C3         59.2720   49.9501   14.3789 C.ar      1 MOL     0.0295
     13 C2         59.7066   50.8601   15.3457 C.ar      1 MOL     0.0108
     14 C1         60.3876   50.4096   16.4776 C.ar      1 MOL    -0.0171
     15 C11        60.6363   52.2751   19.5671 C.2       1 MOL     0.0459
     16 S9         61.9105   53.0439   18.8016 S.3       1 MOL    -0.1054
     17 H161       58.9274   44.5757   12.8732 H         1 MOL     0.1442
     18 H162       58.4001   45.9534   11.9331 H         1 MOL     0.1442
@<TRIPOS>BOND
     1    2    1 ar
     2    1    7 ar
     3    1   12 ar
     4    3    2 ar
     5    2    9 ar
     6   14    3 ar
     7    4    5 1 
     8    4    6 2 
     9    4   14 1 
    10    5   15 2 
    11    6   16 1 
    12    7    8 ar
    13    8   10 ar
    14    8   11 1 
    15    9   10 ar
    16   12   13 ar
    17   13   14 ar
    18   15   16 1 
    19   17   11 1 
    20   18   11 1 
@<TRIPOS>SUBSTRUCTURE
1 MOL         1
@<TRIPOS>MOLECULE
query molecule
   18    20     1     0     0
SMALL
NO_CHARGE

@<TRIPOS>ATOM
      1 C4         65.2401   54.9138   16.7808 C.ar      1 MOL     0.0725
      2 C5         65.1850   53.5640   16.4246 C.ar      1 MOL     0.0009
      3 C6         64.7919   52.6142   17.3680 C.ar      1 MOL     0.0187
      4 C7         64.0585   52.0554   19.6310 C.2       1 MOL    -0.0112
      5 C8         63.0477   52.3305   20.5041 C.2       1 MOL     0.0163
      6 C10        64.5522   50.8105   19.7612 C.2       1 MOL     0.0538
      7 N12        65.5972   55.8456   15.8823 N.ar      1 MOL    -0.2334
      8 C13        65.9171   55.5134   14.6134 C.ar      1 MOL     0.1153
      9 C15        65.5142   53.1845   15.1231 C.ar      1 MOL     0.0138
     10 C14        65.8870   54.1736   14.2046 C.ar      1 MOL     0.0445
     11 N16        66.2834   56.4655   13.7556 N.pl3     1 MOL    -0.3432
     12 C3         64.9003   55.3006   18.0765 C.ar      1 MOL     0.0295
     13 C2         64.5134   54.3487   19.0230 C.ar      1 MOL     0.0108
     14 C1         64.4701   52.9963   18.6808 C.ar      1 MOL    -0.0171
     15 C11        62.6837   51.3811   21.3804 C.2       1 MOL     0.0459
     16 S9         63.6804   50.0819   21.0352 S.3       1 MOL    -0.1054
     17 H161       66.1058   56.3510   12.7680 H         1 MOL     0.1442
     18 H162       66.7386   57.3014   14.0933 H         1 MOL     0.1442
@<TRIPOS>BOND
     1    2    1 ar
     2    1    7 ar
     3    1   12 ar
     4    3    2 ar
     5    2    9 ar
     6   14    3 ar
     7    4    5 1 
     8    4    6 2 
     9    4   14 1 
    10    5   15 2 
    11    6   16 1 
    12    7    8 ar
    13    8   10 ar
    14    8   11 1 
    15    9   10 ar
    16   12   13 ar
    17   13   14 ar
    18   15   16 1 
    19   17   11 1 
    20   18   11 1 
@<TRIPOS>SUBSTRUCTURE
1 MOL         1
@<TRIPOS>MOLECULE
query molecule
   18    20     1     0     0
SMALL
NO_CHARGE

@<TRIPOS>ATOM
      1 C4         66.4094   50.6345   13.5072 C.ar      1 MOL     0.0725
      2 C5         65.8889   50.8314   12.2257 C.ar      1 MOL     0.0009
      3 C6         66.5089   51.7298   11.3568 C.ar      1 MOL     0.0187
      4 C7         68.2810   53.3476   10.8946 C.2       1 MOL    -0.0112
      5 C8         67.7057   54.5361   10.5535 C.2       1 MOL     0.0163
      6 C10        69.5015   53.1716   10.3562 C.2       1 MOL     0.0538
      7 N12        65.8389   49.7600   14.3516 N.ar      1 MOL    -0.2334
      8 C13        64.7480   49.0484   13.9965 C.ar      1 MOL     0.1153
      9 C15        64.7590   50.1164   11.8275 C.ar      1 MOL     0.0138
     10 C14        64.1794   49.2128   12.7265 C.ar      1 MOL     0.0445
     11 N16        64.2002   48.2029   14.8692 N.pl3     1 MOL    -0.3432
     12 C3         67.5456   51.3368   13.9066 C.ar      1 MOL     0.0295
     13 C2         68.1623   52.2416   13.0389 C.ar      1 MOL     0.0108
     14 C1         67.6406   52.4563   11.7623 C.ar      1 MOL    -0.0171
     15 C11        68.3768   55.3588    9.7323 C.2       1 MOL     0.0459
     16 S9         69.8136   54.5615    9.4156 S.3       1 MOL    -0.1054
     17 H161       63.4496   48.5128   15.4697 H         1 MOL     0.1442
     18 H162       64.5358   47.2522   14.9300 H         1 MOL     0.1442
@<TRIPOS>BOND
     1    2    1 ar
     2    1    7 ar
     3    1   12 ar
     4    3    2 ar
     5    2    9 ar
     6   14    3 ar
     7    4    5 1 
     8    4    6 2 
     9    4   14 1 
    10    5   15 2 
    11    6   16 1 
    12    7    8 ar
    13    8   10 ar
    14    8   11 1 
    15    9   10 ar
    16   12   13 ar
    17   13   14 ar
    18   15   16 1 
    19   17   11 1 
    20   18   11 1 
@<TRIPOS>SUBSTRUCTURE
1 MOL         1
@<TRIPOS>MOLECULE
query molecule
   18    20     1     0     0
SMALL
NO_CHARGE

@<TRIPOS>ATOM
      1 C4         59.0596   49.8720   13.6960 C.ar      1 MOL     0.0725
      2 C5         59.8946   49.7291   14.8071 C.ar      1 MOL     0.0009
      3 C6         60.0496   50.7914   15.6981 C.ar      1 MOL     0.0187
      4 C7         59.5259   53.0801   16.3757 C.2       1 MOL    -0.0112
      5 C8         58.4375   53.6296   16.9865 C.2       1 MOL     0.0163
      6 C10        60.6902   53.6344   16.7601 C.2       1 MOL     0.0538
      7 N12        58.8818   48.8552   12.8372 N.ar      1 MOL    -0.2334
      8 C13        59.5018   47.6689   13.0133 C.ar      1 MOL     0.1153
      9 C15        60.5552   48.5183   15.0168 C.ar      1 MOL     0.0138
     10 C14        60.3569   47.4735   14.1059 C.ar      1 MOL     0.0445
     11 N16        59.3132   46.6894   12.1291 N.pl3     1 MOL    -0.3432
     12 C3         58.3870   51.0753   13.4878 C.ar      1 MOL     0.0295
     13 C2         58.5478   52.1414   14.3763 C.ar      1 MOL     0.0108
     14 C1         59.3916   52.0132   15.4806 C.ar      1 MOL    -0.0171
     15 C11        58.6308   54.6384   17.8506 C.2       1 MOL     0.0459
     16 S9         60.2894   54.8586   17.8802 S.3       1 MOL    -0.1054
     17 H161       59.5925   45.7453   12.3541 H         1 MOL     0.1442
     18 H162       58.8911   46.8915   11.2341 H         1 MOL     0.1442
@<TRIPOS>BOND
     1    2    1 ar
     2    1    7 ar
     3    1   12 ar
     4    3    2 ar
     5    2    9 ar
     6   14    3 ar
     7    4    5 1 
     8    4    6 2 
     9    4   14 1 
    10    5   15 2 
    11    6   16 1 
    12    7    8 ar
    13    8   10 ar
    14    8   11 1 
    15    9   10 ar
    16   12   13 ar
    17   13   14 ar
    18   15   16 1 
    19   17   11 1 
    20   18   11 1 
@<TRIPOS>SUBSTRUCTURE
1 MOL         1
@<TRIPOS>MOLECULE
query molecule
   18    20     1     0     0
SMALL
NO_CHARGE

@<TRIPOS>ATOM
      1 C4         64.8398   46.6183   15.9047 C.ar      1 MOL     0.0725
      2 C5         63.4942   46.9886   15.9690 C.ar      1 MOL     0.0009
      3 C6         63.0449   47.7864   17.0217 C.ar      1 MOL     0.0187
      4 C7         63.4914   49.0200   19.0834 C.2       1 MOL    -0.0112
      5 C8         63.0487   50.2896   18.8560 C.2       1 MOL     0.0163
      6 C10        63.4154   48.6517   20.3753 C.2       1 MOL     0.0538
      7 N12        65.2961   45.8671   14.8895 N.ar      1 MOL    -0.2334
      8 C13        64.4762   45.4428   13.9044 C.ar      1 MOL     0.1153
      9 C15        62.6177   46.5631   14.9704 C.ar      1 MOL     0.0138
     10 C14        63.1158   45.7777   13.9236 C.ar      1 MOL     0.0445
     11 N16        64.9635   44.6841   12.9228 N.pl3     1 MOL    -0.3432
     12 C3         65.7231   47.0507   16.8930 C.ar      1 MOL     0.0295
     13 C2         65.2717   47.8438   17.9508 C.ar      1 MOL     0.0108
     14 C1         63.9263   48.2061   18.0318 C.ar      1 MOL    -0.0171
     15 C11        62.6256   51.0162   19.9023 C.2       1 MOL     0.0459
     16 S9         62.7918   49.9977   21.2198 S.3       1 MOL    -0.1054
     17 H161       65.4519   45.1117   12.1491 H         1 MOL     0.1442
     18 H162       64.8444   43.6816   12.9529 H         1 MOL     0.1442
@<TRIPOS>BOND
     1    2    1 ar
     2    1    7 ar
     3    1   12 ar
     4    3    2 ar
     5    2    9 ar
     6   14    3 ar
     7    4    5 1 
     8    4    6 2 
     9    4   14 1 
    10    5   15 2 
    11    6   16 1 
    12    7    8 ar
    13    8   10 ar
    14    8   11 1 
    15    9   10 ar
    16   12   13 ar
    17   13   14 ar
    18   15   16 1 
    19   17   11 1 
    20   18   11 1 
@<TRIPOS>SUBSTRUCTURE
1 MOL         1
@<TRIPOS>MOLECULE
query molecule
   18    20     1     0     0
SMALL
NO_CHARGE

@<TRIPOS>ATOM
      1 C4         62.3397   43.8917   17.4402 C.ar      1 MOL     0.0725
      2 C5         63.7312   43.9621   17.5427 C.ar      1 MOL     0.0009
      3 C6         64.3194   44.9727   18.3038 C.ar      1 MOL     0.0187
      4 C7         64.1063   46.9435   19.7328 C.2       1 MOL    -0.0112
      5 C8         65.2663   47.5517   19.3531 C.2       1 MOL     0.0163
      6 C10        63.5887   47.4439   20.8695 C.2       1 MOL     0.0538
      7 N12        61.7534   42.9155   16.7285 N.ar      1 MOL    -0.2334
      8 C13        62.4825   41.9767   16.0883 C.ar      1 MOL     0.1153
      9 C15        64.5156   43.0112   16.8894 C.ar      1 MOL     0.0138
     10 C14        63.8820   42.0046   16.1504 C.ar      1 MOL     0.0445
     11 N16        61.8641   41.0338   15.3776 N.pl3     1 MOL    -0.3432
     12 C3         61.5501   44.8318   18.1009 C.ar      1 MOL     0.0295
     13 C2         62.1394   45.8478   18.8574 C.ar      1 MOL     0.0108
     14 C1         63.5290   45.9353   18.9532 C.ar      1 MOL    -0.0171
     15 C11        65.7620   48.5260   20.1319 C.2       1 MOL     0.0459
     16 S9         64.6639   48.6644   21.3872 S.3       1 MOL    -0.1054
     17 H161       61.5638   41.2287   14.4332 H         1 MOL     0.1442
     18 H162       61.6958   40.1244   15.7835 H         1 MOL     0.1442
@<TRIPOS>BOND
     1    2    1 ar
     2    1    7 ar
     3    1   12 ar
     4    3    2 ar
     5    2    9 ar
     6   14    3 ar
     7    4    5 1 
     8    4    6 2 
     9    4   14 1 
    10    5   15 2 
    11    6   16 1 
    12    7    8 ar
    13    8   10 ar
    14    8   11 1 
    15    9   10 ar
    16   12   13 ar
    17   13   14 ar
    18   15   16 1 
    19   17   11 1 
    20   18   11 1 
@<TRIPOS>SUBSTRUCTURE
1 MOL         1
@<TRIPOS>MOLECULE
query molecule
   18    20     1     0     0
SMALL
NO_CHARGE

@<TRIPOS>ATOM
      1 C4         62.8459   48.4558   12.6785 C.ar      1 MOL     0.0725
      2 C5         62.5351   49.6870   12.0958 C.ar      1 MOL     0.0009
      3 C6         61.5896   50.5186   12.6966 C.ar      1 MOL     0.0187
      4 C7         59.9912   50.9557   14.4926 C.2       1 MOL    -0.0112
      5 C8         59.4175   51.9954   13.8220 C.2       1 MOL     0.0163
      6 C10        59.5287   50.8100   15.7477 C.2       1 MOL     0.0538
      7 N12        63.7670   47.6495   12.1266 N.ar      1 MOL    -0.2334
      8 C13        64.4179   47.9956   10.9954 C.ar      1 MOL     0.1153
      9 C15        63.1848   50.0740   10.9234 C.ar      1 MOL     0.0138
     10 C14        64.1391   49.2151   10.3644 C.ar      1 MOL     0.0445
     11 N16        65.3131   47.1602   10.4687 N.pl3     1 MOL    -0.3432
     12 C3         62.2091   48.0690   13.8568 C.ar      1 MOL     0.0295
     13 C2         61.2572   48.8987   14.4546 C.ar      1 MOL     0.0108
     14 C1         60.9290   50.1236   13.8716 C.ar      1 MOL    -0.0171
     15 C11        58.5097   52.7472   14.4642 C.2       1 MOL     0.0459
     16 S9         58.3880   52.0577   15.9841 S.3       1 MOL    -0.1054
     17 H161       66.2440   47.1074   10.8568 H         1 MOL     0.1442
     18 H162       65.0604   46.5801    9.6815 H         1 MOL     0.1442
@<TRIPOS>BOND
     1    2    1 ar
     2    1    7 ar
     3    1   12 ar
     4    3    2 ar
     5    2    9 ar
     6   14    3 ar
     7    4    5 1 
     8    4    6 2 
     9    4   14 1 
    10    5   15 2 
    11    6   16 1 
    12    7    8 ar
    13    8   10 ar
    14    8   11 1 
    15    9   10 ar
    16   12   13 ar
    17   13   14 ar
    18   15   16 1 
    19   17   11 1 
    20   18   11 1 
@<TRIPOS>SUBSTRUCTURE
1 MOL         1
@<TRIPOS>MOLECULE
query molecule
   18    20     1     0     0
SMALL
NO_CHARGE

@<TRIPOS>ATOM
      1 C4         76.9935   42.2888   10.3931 C.ar      1 MOL     0.0725
      2 C5         77.1924   40.9207   10.1914 C.ar      1 MOL     0.0009
      3 C6         76.5214   40.2684    9.1566 C.ar      1 MOL     0.0187
      4 C7         74.9641   40.3279    7.2744 C.2       1 MOL    -0.0112
      5 C8         75.4016   40.4440    5.9880 C.2       1 MOL     0.0163
      6 C10        73.8937   39.5228    7.4034 C.2       1 MOL     0.0538
      7 N12        77.6444   42.9391   11.3712 N.ar      1 MOL    -0.2334
      8 C13        78.5047   42.2980   12.1907 C.ar      1 MOL     0.1153
      9 C15        78.0705   40.2258   11.0234 C.ar      1 MOL     0.0138
     10 C14        78.7353   40.9244   12.0386 C.ar      1 MOL     0.0445
     11 N16        79.1186   42.9750   13.1610 N.pl3     1 MOL    -0.3432
     12 C3         76.1266   42.9913    9.5571 C.ar      1 MOL     0.0295
     13 C2         75.4495   42.3367    8.5253 C.ar      1 MOL     0.0108
     14 C1         75.6301   40.9672    8.3257 C.ar      1 MOL    -0.0171
     15 C11        74.7331   39.7917    5.0240 C.2       1 MOL     0.0459
     16 S9         73.5085   38.9847    5.8299 S.3       1 MOL    -0.1054
     17 H161       78.7998   43.9002   13.4109 H         1 MOL     0.1442
     18 H162       79.9025   42.5627   13.6463 H         1 MOL     0.1442
@<TRIPOS>BOND
     1    2    1 ar
     2    1    7 ar
     3    1   12 ar
     4    3    2 ar
     5    2    9 ar
     6   14    3 ar
     7    4    5 1 
     8    4    6 2 
     9    4   14 1 
    10    5   15 2 
    11    6   16 1 
    12    7    8 ar
    13    8   10 ar
    14    8   11 1 
    15    9   10 ar
    16   12   13 ar
    17   13   14 ar
    18   15   16 1 
    19   17   11 1 
    20   18   11 1 
@<TRIPOS>SUBSTRUCTURE
1 MOL         1
@<TRIPOS>MOLECULE
query molecule
   18    20     1     0     0
SMALL
NO_CHARGE

@<TRIPOS>ATOM
      1 C4         65.2837   55.7147   16.9724 C.ar      1 MOL     0.0725
      2 C5         64.6641   56.2080   18.1233 C.ar      1 MOL     0.0009
      3 C6         64.0713   55.3230   19.0243 C.ar      1 MOL     0.0187
      4 C7         63.4945   53.0412   19.6818 C.2       1 MOL    -0.0112
      5 C8         62.1588   52.7684   19.6502 C.2       1 MOL     0.0163
      6 C10        64.1613   52.3360   20.6138 C.2       1 MOL     0.0538
      7 N12        65.8769   56.5482   16.1026 N.ar      1 MOL    -0.2334
      8 C13        65.8922   57.8828   16.3058 C.ar      1 MOL     0.1153
      9 C15        64.6565   57.5825   18.3621 C.ar      1 MOL     0.0138
     10 C14        65.2785   58.4323   17.4392 C.ar      1 MOL     0.0445
     11 N16        66.4762   58.6789   15.4104 N.pl3     1 MOL    -0.3432
     12 C3         65.3054   54.3411   16.7345 C.ar      1 MOL     0.0295
     13 C2         64.7057   53.4555   17.6332 C.ar      1 MOL     0.0108
     14 C1         64.0711   53.9401   18.7779 C.ar      1 MOL    -0.0171
     15 C11        61.6662   51.8824   20.5301 C.2       1 MOL     0.0459
     16 S9         62.9963   51.3754   21.4100 S.3       1 MOL    -0.1054
     17 H161       65.9490   59.4230   14.9763 H         1 MOL     0.1442
     18 H162       67.4459   58.5379   15.1659 H         1 MOL     0.1442
@<TRIPOS>BOND
     1    2    1 ar
     2    1    7 ar
     3    1   12 ar
     4    3    2 ar
     5    2    9 ar
     6   14    3 ar
     7    4    5 1 
     8    4    6 2 
     9    4   14 1 
    10    5   15 2 
    11    6   16 1 
    12    7    8 ar
    13    8   10 ar
    14    8   11 1 
    15    9   10 ar
    16   12   13 ar
    17   13   14 ar
    18   15   16 1 
    19   17   11 1 
    20   18   11 1 
@<TRIPOS>SUBSTRUCTURE
1 MOL         1
@<TRIPOS>MOLECULE
query molecule
   18    20     1     0     0
SMALL
NO_CHARGE

@<TRIPOS>ATOM
      1 C4         78.1287   42.3565    9.2954 C.ar      1 MOL     0.0725
      2 C5         78.0812   40.9705    9.1259 C.ar      1 MOL     0.0009
      3 C6         77.5621   40.4344    7.9471 C.ar      1 MOL     0.0187
      4 C7         76.5584   40.7469    5.7411 C.2       1 MOL    -0.0112
      5 C8         75.7966   39.6159    5.7359 C.2       1 MOL     0.0163
      6 C10        76.7120   41.2925    4.5207 C.2       1 MOL     0.0538
      7 N12        78.6423   42.8929   10.4142 N.ar      1 MOL    -0.2334
      8 C13        79.1237   42.1177   11.4092 C.ar      1 MOL     0.1153
      9 C15        78.5652   40.1394   10.1364 C.ar      1 MOL     0.0138
     10 C14        79.0929   40.7215   11.2955 C.ar      1 MOL     0.0445
     11 N16        79.6096   42.6875   12.5119 N.pl3     1 MOL    -0.3432
     12 C3         77.6579   43.1926    8.2839 C.ar      1 MOL     0.0295
     13 C2         77.1318   42.6555    7.1064 C.ar      1 MOL     0.0108
     14 C1         77.0661   41.2720    6.9344 C.ar      1 MOL    -0.0171
     15 C11        75.3211   39.1706    4.5623 C.2       1 MOL     0.0459
     16 S9         75.8702   40.2791    3.4352 S.3       1 MOL    -0.1054
     17 H161       79.2129   43.5525   12.8501 H         1 MOL     0.1442
     18 H162       80.3744   42.2542   13.0092 H         1 MOL     0.1442
@<TRIPOS>BOND
     1    2    1 ar
     2    1    7 ar
     3    1   12 ar
     4    3    2 ar
     5    2    9 ar
     6   14    3 ar
     7    4    5 1 
     8    4    6 2 
     9    4   14 1 
    10    5   15 2 
    11    6   16 1 
    12    7    8 ar
    13    8   10 ar
    14    8   11 1 
    15    9   10 ar
    16   12   13 ar
    17   13   14 ar
    18   15   16 1 
    19   17   11 1 
    20   18   11 1 
@<TRIPOS>SUBSTRUCTURE
1 MOL         1
@<TRIPOS>MOLECULE
query molecule
   18    20     1     0     0
SMALL
NO_CHARGE

@<TRIPOS>ATOM
      1 C4         77.0121   45.9563    9.2844 C.ar      1 MOL     0.0725
      2 C5         77.1126   44.5692    9.4177 C.ar      1 MOL     0.0009
      3 C6         76.3074   43.7383    8.6382 C.ar      1 MOL     0.0187
      4 C7         74.5782   43.4575    6.9345 C.2       1 MOL    -0.0112
      5 C8         74.8692   43.2533    5.6180 C.2       1 MOL     0.0163
      6 C10        73.5052   42.7645    7.3575 C.2       1 MOL     0.0538
      7 N12        77.7917   46.7729   10.0113 N.ar      1 MOL    -0.2334
      8 C13        78.6910   46.2863   10.8930 C.ar      1 MOL     0.1153
      9 C15        78.0278   44.0322   10.3234 C.ar      1 MOL     0.0138
     10 C14        78.8277   44.9036   11.0729 C.ar      1 MOL     0.0445
     11 N16        79.4346   47.1298   11.6087 N.pl3     1 MOL    -0.3432
     12 C3         76.1081   46.4987    8.3720 C.ar      1 MOL     0.0295
     13 C2         75.2969   45.6667    7.5965 C.ar      1 MOL     0.0108
     14 C1         75.3794   44.2803    7.7336 C.ar      1 MOL    -0.0171
     15 C11        74.0751   42.4379    4.9066 C.2       1 MOL     0.0459
     16 S9         72.9262   41.9056    6.0007 S.3       1 MOL    -0.1054
     17 H161       80.0352   46.7776   12.3403 H         1 MOL     0.1442
     18 H162       79.3974   48.1212   11.4194 H         1 MOL     0.1442
@<TRIPOS>BOND
     1    2    1 ar
     2    1    7 ar
     3    1   12 ar
     4    3    2 ar
     5    2    9 ar
     6   14    3 ar
     7    4    5 1 
     8    4    6 2 
     9    4   14 1 
    10    5   15 2 
    11    6   16 1 
    12    7    8 ar
    13    8   10 ar
    14    8   11 1 
    15    9   10 ar
    16   12   13 ar
    17   13   14 ar
    18   15   16 1 
    19   17   11 1 
    20   18   11 1 
@<TRIPOS>SUBSTRUCTURE
1 MOL         1
@<TRIPOS>MOLECULE
query molecule
   18    20     1     0     0
SMALL
NO_CHARGE

@<TRIPOS>ATOM
      1 C4         66.0073   41.3371   14.4351 C.ar      1 MOL     0.0725
      2 C5         64.7169   41.8694   14.3761 C.ar      1 MOL     0.0009
      3 C6         64.3874   42.7768   13.3688 C.ar      1 MOL     0.0187
      4 C7         65.0221   44.0755   11.3986 C.2       1 MOL    -0.0112
      5 C8         64.2530   45.1754   11.6401 C.2       1 MOL     0.0163
      6 C10        65.4490   43.9919   10.1253 C.2       1 MOL     0.0538
      7 N12        66.3390   40.4478   15.3850 N.ar      1 MOL    -0.2334
      8 C13        65.4451   40.0423   16.3120 C.ar      1 MOL     0.1153
      9 C15        63.7694   41.4764   15.3217 C.ar      1 MOL     0.0138
     10 C14        64.1394   40.5504   16.3047 C.ar      1 MOL     0.0445
     11 N16        65.8176   39.1710   17.2494 N.pl3     1 MOL    -0.3432
     12 C3         66.9550   41.7165   13.4855 C.ar      1 MOL     0.0295
     13 C2         66.6269   42.6304   12.4811 C.ar      1 MOL     0.0108
     14 C1         65.3449   43.1791   12.4231 C.ar      1 MOL    -0.0171
     15 C11        63.9928   46.0098   10.6214 C.2       1 MOL     0.0459
     16 S9         64.7981   45.3452    9.3136 S.3       1 MOL    -0.1054
     17 H161       65.1271   38.7650   17.8645 H         1 MOL     0.1442
     18 H162       66.7904   38.9167   17.3445 H         1 MOL     0.1442
@<TRIPOS>BOND
     1    2    1 ar
     2    1    7 ar
     3    1   12 ar
     4    3    2 ar
     5    2    9 ar
     6   14    3 ar
     7    4    5 1 
     8    4    6 2 
     9    4   14 1 
    10    5   15 2 
    11    6   16 1 
    12    7    8 ar
    13    8   10 ar
    14    8   11 1 
    15    9   10 ar
    16   12   13 ar
    17   13   14 ar
    18   15   16 1 
    19   17   11 1 
    20   18   11 1 
@<TRIPOS>SUBSTRUCTURE
1 MOL         1
@<TRIPOS>MOLECULE
query molecule
   18    20     1     0     0
SMALL
NO_CHARGE

@<TRIPOS>ATOM
      1 C4         76.6557   41.2354   10.5491 C.ar      1 MOL     0.0725
      2 C5         77.1078   42.5543   10.6388 C.ar      1 MOL     0.0009
      3 C6         77.8287   43.1126    9.5828 C.ar      1 MOL     0.0187
      4 C7         78.8322   42.9107    7.3639 C.2       1 MOL    -0.0112
      5 C8         78.2671   43.8549    6.5584 C.2       1 MOL     0.0163
      6 C10        80.1080   42.6289    7.0421 C.2       1 MOL     0.0538
      7 N12        75.9437   40.6857   11.5462 N.ar      1 MOL    -0.2334
      8 C13        75.6449   41.3816   12.6639 C.ar      1 MOL     0.1153
      9 C15        76.8216   43.3007   11.7821 C.ar      1 MOL     0.0138
     10 C14        76.0805   42.7052   12.8102 C.ar      1 MOL     0.0445
     11 N16        74.9507   40.7952   13.6391 N.pl3     1 MOL    -0.3432
     12 C3         76.9278   40.4883    9.4039 C.ar      1 MOL     0.0295
     13 C2         77.6557   41.0452    8.3495 C.ar      1 MOL     0.0108
     14 C1         78.1246   42.3569    8.4363 C.ar      1 MOL    -0.0171
     15 C11        79.0019   44.3638    5.5571 C.2       1 MOL     0.0459
     16 S9         80.4845   43.5988    5.6888 S.3       1 MOL    -0.1054
     17 H161       75.3724   40.0589   14.1868 H         1 MOL     0.1442
     18 H162       74.0030   41.0872   13.8302 H         1 MOL     0.1442
@<TRIPOS>BOND
     1    2    1 ar
     2    1    7 ar
     3    1   12 ar
     4    3    2 ar
     5    2    9 ar
     6   14    3 ar
     7    4    5 1 
     8    4    6 2 
     9    4   14 1 
    10    5   15 2 
    11    6   16 1 
    12    7    8 ar
    13    8   10 ar
    14    8   11 1 
    15    9   10 ar
    16   12   13 ar
    17   13   14 ar
    18   15   16 1 
    19   17   11 1 
    20   18   11 1 
@<TRIPOS>SUBSTRUCTURE
1 MOL         1
@<TRIPOS>MOLECULE
query molecule
   18    20     1     0     0
SMALL
NO_CHARGE

@<TRIPOS>ATOM
      1 C4         64.1436   45.0904   16.8700 C.ar      1 MOL     0.0725
      2 C5         64.1200   44.7444   18.2234 C.ar      1 MOL     0.0009
      3 C6         63.6484   43.4893   18.6092 C.ar      1 MOL     0.0187
      4 C7         62.7164   41.3068   18.0263 C.2       1 MOL    -0.0112
      5 C8         63.5363   40.4152   18.6528 C.2       1 MOL     0.0163
      6 C10        61.4600   40.8535   17.8639 C.2       1 MOL     0.0538
      7 N12        64.6117   46.2859   16.4764 N.ar      1 MOL    -0.2334
      8 C13        65.0692   47.1906   17.3681 C.ar      1 MOL     0.1153
      9 C15        64.5803   45.6574   19.1725 C.ar      1 MOL     0.0138
     10 C14        65.0606   46.8991   18.7385 C.ar      1 MOL     0.0445
     11 N16        65.5097   48.3733   16.9395 N.pl3     1 MOL    -0.3432
     12 C3         63.6966   44.1775   15.9158 C.ar      1 MOL     0.0295
     13 C2         63.2179   42.9234   16.3028 C.ar      1 MOL     0.0108
     14 C1         63.1762   42.5745   17.6535 C.ar      1 MOL    -0.0171
     15 C11        63.0332   39.2214   19.0039 C.2       1 MOL     0.0459
     16 S9         61.4325   39.2774   18.5189 S.3       1 MOL    -0.1054
     17 H161       66.2834   48.8237   17.4071 H         1 MOL     0.1442
     18 H162       65.0699   48.8190   16.1471 H         1 MOL     0.1442
@<TRIPOS>BOND
     1    2    1 ar
     2    1    7 ar
     3    1   12 ar
     4    3    2 ar
     5    2    9 ar
     6   14    3 ar
     7    4    5 1 
     8    4    6 2 
     9    4   14 1 
    10    5   15 2 
    11    6   16 1 
    12    7    8 ar
    13    8   10 ar
    14    8   11 1 
    15    9   10 ar
    16   12   13 ar
    17   13   14 ar
    18   15   16 1 
    19   17   11 1 
    20   18   11 1 
@<TRIPOS>SUBSTRUCTURE
1 MOL         1
@<TRIPOS>MOLECULE
query molecule
   18    20     1     0     0
SMALL
NO_CHARGE

@<TRIPOS>ATOM
      1 C4         69.3892   50.5178    9.4128 C.ar      1 MOL     0.0725
      2 C5         69.5278   49.1741    9.0563 C.ar      1 MOL     0.0009
      3 C6         70.8013   48.6314    8.8826 C.ar      1 MOL     0.0187
      4 C7         73.2313   48.8897    8.8862 C.2       1 MOL    -0.0112
      5 C8         73.8041   48.1362    9.8680 C.2       1 MOL     0.0163
      6 C10        73.9978   49.0054    7.7865 C.2       1 MOL     0.0538
      7 N12        68.1730   51.0542    9.6036 N.ar      1 MOL    -0.2334
      8 C13        67.0494   50.3207    9.4553 C.ar      1 MOL     0.1153
      9 C15        68.3873   48.3881    8.8894 C.ar      1 MOL     0.0138
     10 C14        67.1298   48.9703    9.0905 C.ar      1 MOL     0.0445
     11 N16        65.8598   50.8939    9.6366 N.pl3     1 MOL    -0.3432
     12 C3         70.5255   51.3053    9.5932 C.ar      1 MOL     0.0295
     13 C2         71.8005   50.7636    9.4124 C.ar      1 MOL     0.0108
     14 C1         71.9485   49.4263    9.0414 C.ar      1 MOL    -0.0171
     15 C11        75.0294   47.6317    9.6539 C.2       1 MOL     0.0459
     16 S9         75.4335   48.1413    8.1120 S.3       1 MOL    -0.1054
     17 H161       65.5159   51.0587   10.5718 H         1 MOL     0.1442
     18 H162       65.3022   51.1634    8.8388 H         1 MOL     0.1442
@<TRIPOS>BOND
     1    2    1 ar
     2    1    7 ar
     3    1   12 ar
     4    3    2 ar
     5    2    9 ar
     6   14    3 ar
     7    4    5 1 
     8    4    6 2 
     9    4   14 1 
    10    5   15 2 
    11    6   16 1 
    12    7    8 ar
    13    8   10 ar
    14    8   11 1 
    15    9   10 ar
    16   12   13 ar
    17   13   14 ar
    18   15   16 1 
    19   17   11 1 
    20   18   11 1 
@<TRIPOS>SUBSTRUCTURE
1 MOL         1
@<TRIPOS>MOLECULE
query molecule
   18    20     1     0     0
SMALL
NO_CHARGE

@<TRIPOS>ATOM
      1 C4         66.5383   48.5041    8.3842 C.ar      1 MOL     0.0725
      2 C5         67.4586   47.4597    8.5034 C.ar      1 MOL     0.0009
      3 C6         68.7314   47.7131    9.0154 C.ar      1 MOL     0.0187
      4 C7         70.3751   49.2763    9.9244 C.2       1 MOL    -0.0112
      5 C8         70.5522   49.4786   11.2614 C.2       1 MOL     0.0163
      6 C10        71.5225   49.3131    9.2225 C.2       1 MOL     0.0538
      7 N12        65.3019   48.2774    7.9119 N.ar      1 MOL    -0.2334
      8 C13        64.9083   47.0423    7.5347 C.ar      1 MOL     0.1153
      9 C15        67.0871   46.1714    8.1178 C.ar      1 MOL     0.0138
     10 C14        65.7935   45.9600    7.6251 C.ar      1 MOL     0.0445
     11 N16        63.6782   46.8608    7.0546 N.pl3     1 MOL    -0.3432
     12 C3         66.8995   49.7914    8.7794 C.ar      1 MOL     0.0295
     13 C2         68.1764   50.0464    9.2857 C.ar      1 MOL     0.0108
     14 C1         69.1076   49.0124    9.3942 C.ar      1 MOL    -0.0171
     15 C11        71.7948   49.7082   11.7142 C.2       1 MOL     0.0459
     16 S9         72.7624   49.6347   10.3508 S.3       1 MOL    -0.1054
     17 H161       62.8895   47.3006    7.5069 H         1 MOL     0.1442
     18 H162       63.5348   46.2836    6.2383 H         1 MOL     0.1442
@<TRIPOS>BOND
     1    2    1 ar
     2    1    7 ar
     3    1   12 ar
     4    3    2 ar
     5    2    9 ar
     6   14    3 ar
     7    4    5 1 
     8    4    6 2 
     9    4   14 1 
    10    5   15 2 
    11    6   16 1 
    12    7    8 ar
    13    8   10 ar
    14    8   11 1 
    15    9   10 ar
    16   12   13 ar
    17   13   14 ar
    18   15   16 1 
    19   17   11 1 
    20   18   11 1 
@<TRIPOS>SUBSTRUCTURE
1 MOL         1
@<TRIPOS>MOLECULE
query molecule
   18    20     1     0     0
SMALL
NO_CHARGE

@<TRIPOS>ATOM
      1 C4         78.2979   50.9242    6.3588 C.ar      1 MOL     0.0725
      2 C5         77.8448   51.2068    7.6499 C.ar      1 MOL     0.0009
      3 C6         76.9846   50.3160    8.2925 C.ar      1 MOL     0.0187
      4 C7         75.7011   48.2365    8.2883 C.2       1 MOL    -0.0112
      5 C8         74.6656   47.6498    7.6227 C.2       1 MOL     0.0163
      6 C10        75.8252   47.8151    9.5601 C.2       1 MOL     0.0538
      7 N12        79.1414   51.7590    5.7306 N.ar      1 MOL    -0.2334
      8 C13        79.5755   52.8943    6.3182 C.ar      1 MOL     0.1153
      9 C15        78.2691   52.3742    8.2850 C.ar      1 MOL     0.0138
     10 C14        79.1462   53.2311    7.6087 C.ar      1 MOL     0.0445
     11 N16        80.3990   53.7060    5.6551 N.pl3     1 MOL    -0.3432
     12 C3         77.8872   49.7530    5.7237 C.ar      1 MOL     0.0295
     13 C2         77.0203   48.8644    6.3645 C.ar      1 MOL     0.0108
     14 C1         76.5503   49.1457    7.6483 C.ar      1 MOL    -0.0171
     15 C11        73.8966   46.7706    8.2841 C.2       1 MOL     0.0459
     16 S9         74.5639   46.6938    9.8169 S.3       1 MOL    -0.1054
     17 H161       80.5349   53.5858    4.6616 H         1 MOL     0.1442
     18 H162       80.8870   54.4413    6.1463 H         1 MOL     0.1442
@<TRIPOS>BOND
     1    2    1 ar
     2    1    7 ar
     3    1   12 ar
     4    3    2 ar
     5    2    9 ar
     6   14    3 ar
     7    4    5 1 
     8    4    6 2 
     9    4   14 1 
    10    5   15 2 
    11    6   16 1 
    12    7    8 ar
    13    8   10 ar
    14    8   11 1 
    15    9   10 ar
    16   12   13 ar
    17   13   14 ar
    18   15   16 1 
    19   17   11 1 
    20   18   11 1 
@<TRIPOS>SUBSTRUCTURE
1 MOL         1
@<TRIPOS>MOLECULE
query molecule
   18    20     1     0     0
SMALL
NO_CHARGE

@<TRIPOS>ATOM
      1 C4         72.3111   42.6015    9.3975 C.ar      1 MOL     0.0725
      2 C5         72.8437   41.5939   10.2055 C.ar      1 MOL     0.0009
      3 C6         74.1748   41.2082   10.0446 C.ar      1 MOL     0.0187
      4 C7         76.3234   41.4407    8.9039 C.2       1 MOL    -0.0112
      5 C8         76.6923   40.4946    7.9937 C.2       1 MOL     0.0163
      6 C10        77.3645   41.9835    9.5612 C.2       1 MOL     0.0538
      7 N12        71.0380   43.0007    9.5496 N.ar      1 MOL    -0.2334
      8 C13        70.2324   42.4440   10.4790 C.ar      1 MOL     0.1153
      9 C15        72.0376   40.9930   11.1728 C.ar      1 MOL     0.0138
     10 C14        70.7123   41.4235   11.3105 C.ar      1 MOL     0.0445
     11 N16        68.9693   42.8555   10.5875 N.pl3     1 MOL    -0.3432
     12 C3         73.1151   43.2144    8.4375 C.ar      1 MOL     0.0295
     13 C2         74.4461   42.8233    8.2718 C.ar      1 MOL     0.0108
     14 C1         74.9826   41.8071    9.0638 C.ar      1 MOL    -0.0171
     15 C11        77.9958   40.1988    7.8715 C.2       1 MOL     0.0459
     16 S9         78.7627   41.2060    8.9661 S.3       1 MOL    -0.1054
     17 H161       68.4184   42.5885   11.3908 H         1 MOL     0.1442
     18 H162       68.5630   43.4343    9.8664 H         1 MOL     0.1442
@<TRIPOS>BOND
     1    2    1 ar
     2    1    7 ar
     3    1   12 ar
     4    3    2 ar
     5    2    9 ar
     6   14    3 ar
     7    4    5 1 
     8    4    6 2 
     9    4   14 1 
    10    5   15 2 
    11    6   16 1 
    12    7    8 ar
    13    8   10 ar
    14    8   11 1 
    15    9   10 ar
    16   12   13 ar
    17   13   14 ar
    18   15   16 1 
    19   17   11 1 
    20   18   11 1 
@<TRIPOS>SUBSTRUCTURE
1 MOL         1
@<TRIPOS>MOLECULE
query molecule
   18    20     1     0     0
SMALL
NO_CHARGE

@<TRIPOS>ATOM
      1 C4         67.9363   53.2181   11.6124 C.ar      1 MOL     0.0725
      2 C5         69.0854   53.3536   10.8293 C.ar      1 MOL     0.0009
      3 C6         70.1602   52.4848   11.0204 C.ar      1 MOL     0.0187
      4 C7         71.1744   50.5984   12.1970 C.2       1 MOL    -0.0112
      5 C8         71.9566   50.6635   13.3121 C.2       1 MOL     0.0163
      6 C10        71.5094   49.5928   11.3681 C.2       1 MOL     0.0538
      7 N12        66.8835   54.0317   11.4309 N.ar      1 MOL    -0.2334
      8 C13        66.8994   55.0047   10.4951 C.ar      1 MOL     0.1153
      9 C15        69.1380   54.3520    9.8563 C.ar      1 MOL     0.0138
     10 C14        68.0293   55.1906    9.6878 C.ar      1 MOL     0.0445
     11 N16        65.8412   55.8033   10.3572 N.pl3     1 MOL    -0.3432
     12 C3         67.8729   52.2143   12.5779 C.ar      1 MOL     0.0295
     13 C2         68.9519   51.3488   12.7739 C.ar      1 MOL     0.0108
     14 C1         70.1098   51.4861   12.0070 C.ar      1 MOL    -0.0171
     15 C11        72.9512   49.7725   13.4483 C.2       1 MOL     0.0459
     16 S9         72.8441   48.8070   12.0856 S.3       1 MOL    -0.1054
     17 H161       64.9292   55.4072   10.1798 H         1 MOL     0.1442
     18 H162       65.9513   56.8046   10.4302 H         1 MOL     0.1442
@<TRIPOS>BOND
     1    2    1 ar
     2    1    7 ar
     3    1   12 ar
     4    3    2 ar
     5    2    9 ar
     6   14    3 ar
     7    4    5 1 
     8    4    6 2 
     9    4   14 1 
    10    5   15 2 
    11    6   16 1 
    12    7    8 ar
    13    8   10 ar
    14    8   11 1 
    15    9   10 ar
    16   12   13 ar
    17   13   14 ar
    18   15   16 1 
    19   17   11 1 
    20   18   11 1 
@<TRIPOS>SUBSTRUCTURE
1 MOL         1
@<TRIPOS>MOLECULE
query molecule
   18    20     1     0     0
SMALL
NO_CHARGE

@<TRIPOS>ATOM
      1 C4         72.5559   42.6308    5.8765 C.ar      1 MOL     0.0725
      2 C5         73.3542   41.9109    6.7689 C.ar      1 MOL     0.0009
      3 C6         74.7412   42.0567    6.7300 C.ar      1 MOL     0.0187
      4 C7         76.7367   43.0717    5.7506 C.2       1 MOL    -0.0112
      5 C8         77.3263   44.1921    6.2574 C.2       1 MOL     0.0163
      6 C10        77.6185   42.1724    5.2771 C.2       1 MOL     0.0538
      7 N12        71.2181   42.5194    5.9106 N.ar      1 MOL    -0.2334
      8 C13        70.6019   41.7108    6.7990 C.ar      1 MOL     0.1153
      9 C15        72.7508   41.0619    7.6969 C.ar      1 MOL     0.0138
     10 C14        71.3543   40.9594    7.7112 C.ar      1 MOL     0.0445
     11 N16        69.2725   41.6140    6.7898 N.pl3     1 MOL    -0.3432
     12 C3         73.1523   43.4903    4.9550 C.ar      1 MOL     0.0295
     13 C2         74.5416   43.6310    4.9115 C.ar      1 MOL     0.0108
     14 C1         75.3482   42.9044    5.7887 C.ar      1 MOL    -0.0171
     15 C11        78.6644   44.2876    6.2102 C.2       1 MOL     0.0459
     16 S9         79.1660   42.8572    5.5010 S.3       1 MOL    -0.1054
     17 H161       68.7258   42.2241    6.1991 H         1 MOL     0.1442
     18 H162       68.8120   40.9306    7.3737 H         1 MOL     0.1442
@<TRIPOS>BOND
     1    2    1 ar
     2    1    7 ar
     3    1   12 ar
     4    3    2 ar
     5    2    9 ar
     6   14    3 ar
     7    4    5 1 
     8    4    6 2 
     9    4   14 1 
    10    5   15 2 
    11    6   16 1 
    12    7    8 ar
    13    8   10 ar
    14    8   11 1 
    15    9   10 ar
    16   12   13 ar
    17   13   14 ar
    18   15   16 1 
    19   17   11 1 
    20   18   11 1 
@<TRIPOS>SUBSTRUCTURE
1 MOL         1
@<TRIPOS>MOLECULE
query molecule
   18    20     1     0     0
SMALL
NO_CHARGE

@<TRIPOS>ATOM
      1 C4         74.7261   46.7138    8.1771 C.ar      1 MOL     0.0725
      2 C5         75.3311   45.4664    8.3493 C.ar      1 MOL     0.0009
      3 C6         76.4443   45.3455    9.1815 C.ar      1 MOL     0.0187
      4 C7         78.0845   46.3575   10.6839 C.2       1 MOL    -0.0112
      5 C8         78.0389   45.5782   11.8020 C.2       1 MOL     0.0163
      6 C10        79.2822   46.9380   10.4865 C.2       1 MOL     0.0538
      7 N12        73.6422   46.8478    7.3958 N.ar      1 MOL    -0.2334
      8 C13        73.1049   45.7905    6.7507 C.ar      1 MOL     0.1153
      9 C15        74.8052   44.3531    7.6932 C.ar      1 MOL     0.0138
     10 C14        73.6765   44.5179    6.8810 C.ar      1 MOL     0.0445
     11 N16        72.0390   45.9672    5.9703 N.pl3     1 MOL    -0.3432
     12 C3         75.2395   47.8278    8.8399 C.ar      1 MOL     0.0295
     13 C2         76.3584   47.7080    9.6677 C.ar      1 MOL     0.0108
     14 C1         76.9788   46.4688    9.8339 C.ar      1 MOL    -0.0171
     15 C11        79.1376   45.4951   12.5687 C.2       1 MOL     0.0459
     16 S9         80.2706   46.4488   11.7894 S.3       1 MOL    -0.1054
     17 H161       71.1503   45.5639    6.2303 H         1 MOL     0.1442
     18 H162       72.1200   46.5045    5.1189 H         1 MOL     0.1442
@<TRIPOS>BOND
     1    2    1 ar
     2    1    7 ar
     3    1   12 ar
     4    3    2 ar
     5    2    9 ar
     6   14    3 ar
     7    4    5 1 
     8    4    6 2 
     9    4   14 1 
    10    5   15 2 
    11    6   16 1 
    12    7    8 ar
    13    8   10 ar
    14    8   11 1 
    15    9   10 ar
    16   12   13 ar
    17   13   14 ar
    18   15   16 1 
    19   17   11 1 
    20   18   11 1 
@<TRIPOS>SUBSTRUCTURE
1 MOL         1
@<TRIPOS>MOLECULE
query molecule
   18    20     1     0     0
SMALL
NO_CHARGE

@<TRIPOS>ATOM
      1 C4         78.8444   42.5472    5.6547 C.ar      1 MOL     0.0725
      2 C5         78.6265   41.9222    6.8850 C.ar      1 MOL     0.0009
      3 C6         78.6105   42.6823    8.0548 C.ar      1 MOL     0.0187
      4 C7         78.8019   44.8443    9.1776 C.2       1 MOL    -0.0112
      5 C8         77.6453   45.0199    9.8784 C.2       1 MOL     0.0163
      6 C10        79.8657   45.4415    9.7453 C.2       1 MOL     0.0538
      7 N12        78.8444   41.8364    4.5154 N.ar      1 MOL    -0.2334
      8 C13        78.6391   40.5020    4.5187 C.ar      1 MOL     0.1153
      9 C15        78.4162   40.5436    6.9258 C.ar      1 MOL     0.0138
     10 C14        78.4240   39.8229    5.7252 C.ar      1 MOL     0.0445
     11 N16        78.6638   39.8288    3.3686 N.pl3     1 MOL    -0.3432
     12 C3         79.0429   43.9263    5.6061 C.ar      1 MOL     0.0295
     13 C2         79.0337   44.6865    6.7783 C.ar      1 MOL     0.0108
     14 C1         78.8320   44.0688    8.0135 C.ar      1 MOL    -0.0171
     15 C11        77.6822   45.7585   10.9985 C.2       1 MOL     0.0459
     16 S9         79.2843   46.2180   11.1499 S.3       1 MOL    -0.1054
     17 H161       79.1945   40.1847    2.5864 H         1 MOL     0.1442
     18 H162       78.1517   38.9629    3.2792 H         1 MOL     0.1442
@<TRIPOS>BOND
     1    2    1 ar
     2    1    7 ar
     3    1   12 ar
     4    3    2 ar
     5    2    9 ar
     6   14    3 ar
     7    4    5 1 
     8    4    6 2 
     9    4   14 1 
    10    5   15 2 
    11    6   16 1 
    12    7    8 ar
    13    8   10 ar
    14    8   11 1 
    15    9   10 ar
    16   12   13 ar
    17   13   14 ar
    18   15   16 1 
    19   17   11 1 
    20   18   11 1 
@<TRIPOS>SUBSTRUCTURE
1 MOL         1
@<TRIPOS>MOLECULE
query molecule
   18    20     1     0     0
SMALL
NO_CHARGE

@<TRIPOS>ATOM
      1 C4         65.4684   46.1617   18.7995 C.ar      1 MOL     0.0725
      2 C5         65.2031   47.0355   19.8569 C.ar      1 MOL     0.0009
      3 C6         64.7006   48.3099   19.5928 C.ar      1 MOL     0.0187
      4 C7         63.9580   50.0039   17.9957 C.2       1 MOL    -0.0112
      5 C8         63.1673   50.6543   18.8965 C.2       1 MOL     0.0163
      6 C10        64.2021   50.7214   16.8839 C.2       1 MOL     0.0538
      7 N12        65.9340   44.9241   19.0336 N.ar      1 MOL    -0.2334
      8 C13        66.1642   44.4848   20.2893 C.ar      1 MOL     0.1153
      9 C15        65.4346   46.6162   21.1672 C.ar      1 MOL     0.0138
     10 C14        65.9236   45.3224   21.3864 C.ar      1 MOL     0.0445
     11 N16        66.6431   43.2556   20.4797 N.pl3     1 MOL    -0.3432
     12 C3         65.2274   46.5706   17.4886 C.ar      1 MOL     0.0295
     13 C2         64.7308   47.8492   17.2238 C.ar      1 MOL     0.0108
     14 C1         64.4771   48.7345   18.2726 C.ar      1 MOL    -0.0171
     15 C11        62.7145   51.8784   18.5831 C.2       1 MOL     0.0459
     16 S9         63.3622   52.1954   17.0729 S.3       1 MOL    -0.1054
     17 H161       67.0576   42.7502   19.7098 H         1 MOL     0.1442
     18 H162       66.5914   42.8296   21.3940 H         1 MOL     0.1442
@<TRIPOS>BOND
     1    2    1 ar
     2    1    7 ar
     3    1   12 ar
     4    3    2 ar
     5    2    9 ar
     6   14    3 ar
     7    4    5 1 
     8    4    6 2 
     9    4   14 1 
    10    5   15 2 
    11    6   16 1 
    12    7    8 ar
    13    8   10 ar
    14    8   11 1 
    15    9   10 ar
    16   12   13 ar
    17   13   14 ar
    18   15   16 1 
    19   17   11 1 
    20   18   11 1 
@<TRIPOS>SUBSTRUCTURE
1 MOL         1
@<TRIPOS>MOLECULE
query molecule
   18    20     1     0     0
SMALL
NO_CHARGE

@<TRIPOS>ATOM
      1 C4         71.2992   43.6916    6.4132 C.ar      1 MOL     0.0725
      2 C5         70.6304   44.4207    7.3997 C.ar      1 MOL     0.0009
      3 C6         71.0243   45.7294    7.6804 C.ar      1 MOL     0.0187
      4 C7         72.4948   47.6346    7.2575 C.2       1 MOL    -0.0112
      5 C8         73.3270   47.9292    8.2969 C.2       1 MOL     0.0163
      6 C10        72.1564   48.7103    6.5235 C.2       1 MOL     0.0538
      7 N12        70.9230   42.4377    6.1145 N.ar      1 MOL    -0.2334
      8 C13        69.8955   41.8400    6.7546 C.ar      1 MOL     0.1153
      9 C15        69.5673   43.8320    8.0848 C.ar      1 MOL     0.0138
     10 C14        69.1953   42.5220    7.7584 C.ar      1 MOL     0.0445
     11 N16        69.5635   40.5876    6.4416 N.pl3     1 MOL    -0.3432
     12 C3         72.3543   44.2788    5.7164 C.ar      1 MOL     0.0295
     13 C2         72.7532   45.5869    6.0024 C.ar      1 MOL     0.0108
     14 C1         72.1011   46.3177    6.9967 C.ar      1 MOL    -0.0171
     15 C11        73.6858   49.2088    8.4859 C.2       1 MOL     0.0459
     16 S9         72.9280   50.0475    7.2518 S.3       1 MOL    -0.1054
     17 H161       68.9571   40.4077    5.6542 H         1 MOL     0.1442
     18 H162       69.9184   39.8186    6.9918 H         1 MOL     0.1442
@<TRIPOS>BOND
     1    2    1 ar
     2    1    7 ar
     3    1   12 ar
     4    3    2 ar
     5    2    9 ar
     6   14    3 ar
     7    4    5 1 
     8    4    6 2 
     9    4   14 1 
    10    5   15 2 
    11    6   16 1 
    12    7    8 ar
    13    8   10 ar
    14    8   11 1 
    15    9   10 ar
    16   12   13 ar
    17   13   14 ar
    18   15   16 1 
    19   17   11 1 
    20   18   11 1 
@<TRIPOS>SUBSTRUCTURE
1 MOL         1
@<TRIPOS>MOLECULE
query molecule
   18    20     1     0     0
SMALL
NO_CHARGE

@<TRIPOS>ATOM
      1 C4         62.5140   46.6266   10.7544 C.ar      1 MOL     0.0725
      2 C5         63.1762   47.7199   11.3185 C.ar      1 MOL     0.0009
      3 C6         64.1682   48.3790   10.5918 C.ar      1 MOL     0.0187
      4 C7         65.5066   48.6060    8.5599 C.2       1 MOL    -0.0112
      5 C8         66.1374   49.7115    9.0496 C.2       1 MOL     0.0163
      6 C10        65.9589   48.2250    7.3513 C.2       1 MOL     0.0538
      7 N12        61.5430   45.9907   11.4297 N.ar      1 MOL    -0.2334
      8 C13        61.1774   46.3799   12.6697 C.ar      1 MOL     0.1153
      9 C15        62.8274   48.1458   12.6004 C.ar      1 MOL     0.0138
     10 C14        61.8142   47.4650   13.2864 C.ar      1 MOL     0.0445
     11 N16        60.2209   45.7122   13.3145 N.pl3     1 MOL    -0.3432
     12 C3         62.8495   46.2040    9.4689 C.ar      1 MOL     0.0295
     13 C2         63.8477   46.8598    8.7440 C.ar      1 MOL     0.0108
     14 C1         64.5253   47.9433    9.3050 C.ar      1 MOL    -0.0171
     15 C11        67.0844   50.2933    8.2969 C.2       1 MOL     0.0459
     16 S9         67.1662   49.3508    6.9165 S.3       1 MOL    -0.1054
     17 H161       60.4638   44.9428   13.9220 H         1 MOL     0.1442
     18 H162       59.2532   45.9757   13.1955 H         1 MOL     0.1442
@<TRIPOS>BOND
     1    2    1 ar
     2    1    7 ar
     3    1   12 ar
     4    3    2 ar
     5    2    9 ar
     6   14    3 ar
     7    4    5 1 
     8    4    6 2 
     9    4   14 1 
    10    5   15 2 
    11    6   16 1 
    12    7    8 ar
    13    8   10 ar
    14    8   11 1 
    15    9   10 ar
    16   12   13 ar
    17   13   14 ar
    18   15   16 1 
    19   17   11 1 
    20   18   11 1 
@<TRIPOS>SUBSTRUCTURE
1 MOL         1
@<TRIPOS>MOLECULE
query molecule
   18    20     1     0     0
SMALL
NO_CHARGE

@<TRIPOS>ATOM
      1 C4         74.5345   40.3041   19.2932 C.ar      1 MOL     0.0725
      2 C5         73.8086   41.2659   18.5863 C.ar      1 MOL     0.0009
      3 C6         72.4988   41.5617   18.9650 C.ar      1 MOL     0.0187
      4 C7         70.5848   41.1875   20.4375 C.2       1 MOL    -0.0112
      5 C8         69.5590   40.3205   20.2017 C.2       1 MOL     0.0163
      6 C10        70.2081   42.2894   21.1116 C.2       1 MOL     0.0538
      7 N12        75.8028   40.0187   18.9568 N.ar      1 MOL    -0.2334
      8 C13        76.4157   40.6437   17.9289 C.ar      1 MOL     0.1153
      9 C15        74.4092   41.9275   17.5149 C.ar      1 MOL     0.0138
     10 C14        75.7316   41.6108   17.1806 C.ar      1 MOL     0.0445
     11 N16        77.6701   40.3203   17.6150 N.pl3     1 MOL    -0.3432
     12 C3         73.9439   39.6484   20.3725 C.ar      1 MOL     0.0295
     13 C2         72.6299   39.9397   20.7474 C.ar      1 MOL     0.0108
     14 C1         71.8917   40.8880   20.0377 C.ar      1 MOL    -0.0171
     15 C11        68.3299   40.6538   20.6260 C.2       1 MOL     0.0459
     16 S9         68.5285   42.1368   21.3755 S.3       1 MOL    -0.1054
     17 H161       78.0439   40.5674   16.7099 H         1 MOL     0.1442
     18 H162       78.2467   39.8280   18.2822 H         1 MOL     0.1442
@<TRIPOS>BOND
     1    2    1 ar
     2    1    7 ar
     3    1   12 ar
     4    3    2 ar
     5    2    9 ar
     6   14    3 ar
     7    4    5 1 
     8    4    6 2 
     9    4   14 1 
    10    5   15 2 
    11    6   16 1 
    12    7    8 ar
    13    8   10 ar
    14    8   11 1 
    15    9   10 ar
    16   12   13 ar
    17   13   14 ar
    18   15   16 1 
    19   17   11 1 
    20   18   11 1 
@<TRIPOS>SUBSTRUCTURE
1 MOL         1
@<TRIPOS>MOLECULE
query molecule
   18    20     1     0     0
SMALL
NO_CHARGE

@<TRIPOS>ATOM
      1 C4         72.5687   57.9092    7.9726 C.ar      1 MOL     0.0725
      2 C5         72.0726   57.6521    9.2531 C.ar      1 MOL     0.0009
      3 C6         72.9463   57.2652   10.2696 C.ar      1 MOL     0.0187
      4 C7         75.2078   56.7386   11.0312 C.2       1 MOL    -0.0112
      5 C8         74.7922   56.6225   12.3248 C.2       1 MOL     0.0163
      6 C10        76.5034   56.4203   10.8562 C.2       1 MOL     0.0538
      7 N12        71.7473   58.3015    6.9854 N.ar      1 MOL    -0.2334
      8 C13        70.4222   58.4565    7.1925 C.ar      1 MOL     0.1153
      9 C15        70.7074   57.7972    9.5011 C.ar      1 MOL     0.0138
     10 C14        69.8699   58.2040    8.4552 C.ar      1 MOL     0.0445
     11 N16        69.6370   58.8307    6.1826 N.pl3     1 MOL    -0.3432
     12 C3         73.9338   57.7780    7.7216 C.ar      1 MOL     0.0295
     13 C2         74.8077   57.3838    8.7379 C.ar      1 MOL     0.0108
     14 C1         74.3192   57.1100   10.0163 C.ar      1 MOL    -0.0171
     15 C11        75.6859   56.2437   13.2519 C.2       1 MOL     0.0459
     16 S9         77.1073   56.0113   12.3996 S.3       1 MOL    -0.1054
     17 H161       69.4278   58.1811    5.4381 H         1 MOL     0.1442
     18 H162       69.2511   59.7638    6.1619 H         1 MOL     0.1442
@<TRIPOS>BOND
     1    2    1 ar
     2    1    7 ar
     3    1   12 ar
     4    3    2 ar
     5    2    9 ar
     6   14    3 ar
     7    4    5 1 
     8    4    6 2 
     9    4   14 1 
    10    5   15 2 
    11    6   16 1 
    12    7    8 ar
    13    8   10 ar
    14    8   11 1 
    15    9   10 ar
    16   12   13 ar
    17   13   14 ar
    18   15   16 1 
    19   17   11 1 
    20   18   11 1 
@<TRIPOS>SUBSTRUCTURE
1 MOL         1
@<TRIPOS>MOLECULE
query molecule
   18    20     1     0     0
SMALL
NO_CHARGE

@<TRIPOS>ATOM
      1 C4         72.6665   45.5060    4.3746 C.ar      1 MOL     0.0725
      2 C5         73.5060   45.5058    5.4913 C.ar      1 MOL     0.0009
      3 C6         74.6653   46.2820    5.4865 C.ar      1 MOL     0.0187
      4 C7         76.1620   47.8449    4.3514 C.2       1 MOL    -0.0112
      5 C8         77.3196   47.4026    3.7822 C.2       1 MOL     0.0163
      6 C10        76.2494   49.0979    4.8340 C.2       1 MOL     0.0538
      7 N12        71.5362   44.7810    4.3668 N.ar      1 MOL    -0.2334
      8 C13        71.1756   44.0287    5.4282 C.ar      1 MOL     0.1153
      9 C15        73.1665   44.7355    6.6039 C.ar      1 MOL     0.0138
     10 C14        71.9848   43.9850    6.5712 C.ar      1 MOL     0.0445
     11 N16        70.0548   43.3092    5.3754 N.pl3     1 MOL    -0.3432
     12 C3         72.9939   46.2835    3.2646 C.ar      1 MOL     0.0295
     13 C2         74.1584   47.0553    3.2571 C.ar      1 MOL     0.0108
     14 C1         75.0110   47.0496    4.3621 C.ar      1 MOL    -0.0171
     15 C11        78.3858   48.2181    3.7851 C.2       1 MOL     0.0459
     16 S9         77.8490   49.6140    4.5360 S.3       1 MOL    -0.1054
     17 H161       69.1772   43.7199    5.6601 H         1 MOL     0.1442
     18 H162       70.0833   42.3533    5.0505 H         1 MOL     0.1442
@<TRIPOS>BOND
     1    2    1 ar
     2    1    7 ar
     3    1   12 ar
     4    3    2 ar
     5    2    9 ar
     6   14    3 ar
     7    4    5 1 
     8    4    6 2 
     9    4   14 1 
    10    5   15 2 
    11    6   16 1 
    12    7    8 ar
    13    8   10 ar
    14    8   11 1 
    15    9   10 ar
    16   12   13 ar
    17   13   14 ar
    18   15   16 1 
    19   17   11 1 
    20   18   11 1 
@<TRIPOS>SUBSTRUCTURE
1 MOL         1
@<TRIPOS>MOLECULE
query molecule
   18    20     1     0     0
SMALL
NO_CHARGE

@<TRIPOS>ATOM
      1 C4         73.2080   41.7361   20.3568 C.ar      1 MOL     0.0725
      2 C5         72.7560   40.4146   20.3213 C.ar      1 MOL     0.0009
      3 C6         71.3924   40.1456   20.4424 C.ar      1 MOL     0.0187
      4 C7         69.0963   40.9321   20.7268 C.2       1 MOL    -0.0112
      5 C8         68.2607   41.8119   21.3493 C.2       1 MOL     0.0163
      6 C10        68.4594   39.8645   20.2118 C.2       1 MOL     0.0538
      7 N12        74.5142   42.0174   20.2226 N.ar      1 MOL    -0.2334
      8 C13        75.4305   41.0404   20.0538 C.ar      1 MOL     0.1153
      9 C15        73.6763   39.3797   20.1537 C.ar      1 MOL     0.0138
     10 C14        75.0335   39.6972   20.0193 C.ar      1 MOL     0.0445
     11 N16        76.7200   41.3589   19.9417 N.pl3     1 MOL    -0.3432
     12 C3         72.2918   42.7755   20.5116 C.ar      1 MOL     0.0295
     13 C2         70.9271   42.5056   20.6398 C.ar      1 MOL     0.0108
     14 C1         70.4677   41.1879   20.6209 C.ar      1 MOL    -0.0171
     15 C11        66.9513   41.5216   21.4027 C.2       1 MOL     0.0459
     16 S9         66.8077   40.0635   20.5941 S.3       1 MOL    -0.1054
     17 H161       77.4263   40.6418   20.0240 H         1 MOL     0.1442
     18 H162       76.9906   42.3175   19.7743 H         1 MOL     0.1442
@<TRIPOS>BOND
     1    2    1 ar
     2    1    7 ar
     3    1   12 ar
     4    3    2 ar
     5    2    9 ar
     6   14    3 ar
     7    4    5 1 
     8    4    6 2 
     9    4   14 1 
    10    5   15 2 
    11    6   16 1 
    12    7    8 ar
    13    8   10 ar
    14    8   11 1 
    15    9   10 ar
    16   12   13 ar
    17   13   14 ar
    18   15   16 1 
    19   17   11 1 
    20   18   11 1 
@<TRIPOS>SUBSTRUCTURE
1 MOL         1
@<TRIPOS>MOLECULE
query molecule
   18    20     1     0     0
SMALL
NO_CHARGE

@<TRIPOS>ATOM
      1 C4         76.4780   41.7751   12.9560 C.ar      1 MOL     0.0725
      2 C5         77.5820   42.1772   13.7120 C.ar      1 MOL     0.0009
      3 C6         77.5628   42.0283   15.0991 C.ar      1 MOL     0.0187
      4 C7         76.4116   41.3276   17.1375 C.2       1 MOL    -0.0112
      5 C8         77.4083   40.6582   17.7842 C.2       1 MOL     0.0163
      6 C10        75.4740   41.8204   17.9673 C.2       1 MOL     0.0538
      7 N12        76.4843   41.8920   11.6183 N.ar      1 MOL    -0.2334
      8 C13        77.5480   42.4019   10.9616 C.ar      1 MOL     0.1153
      9 C15        78.6963   42.7134   13.0663 C.ar      1 MOL     0.0138
     10 C14        78.6784   42.8287   11.6709 C.ar      1 MOL     0.0445
     11 N16        77.5091   42.5178    9.6343 N.pl3     1 MOL    -0.3432
     12 C3         75.3664   41.2269   13.5944 C.ar      1 MOL     0.0295
     13 C2         75.3445   41.0843   14.9840 C.ar      1 MOL     0.0108
     14 C1         76.4364   41.4972   15.7490 C.ar      1 MOL    -0.0171
     15 C11        77.3399   40.5442   19.1199 C.2       1 MOL     0.0459
     16 S9         75.9398   41.3574   19.5430 S.3       1 MOL    -0.1054
     17 H161       76.9031   43.2021    9.2047 H         1 MOL     0.1442
     18 H162       78.0856   41.9212    9.0583 H         1 MOL     0.1442
@<TRIPOS>BOND
     1    2    1 ar
     2    1    7 ar
     3    1   12 ar
     4    3    2 ar
     5    2    9 ar
     6   14    3 ar
     7    4    5 1 
     8    4    6 2 
     9    4   14 1 
    10    5   15 2 
    11    6   16 1 
    12    7    8 ar
    13    8   10 ar
    14    8   11 1 
    15    9   10 ar
    16   12   13 ar
    17   13   14 ar
    18   15   16 1 
    19   17   11 1 
    20   18   11 1 
@<TRIPOS>SUBSTRUCTURE
1 MOL         1
@<TRIPOS>MOLECULE
query molecule
   18    20     1     0     0
SMALL
NO_CHARGE

@<TRIPOS>ATOM
      1 C4         67.4200   46.5917    8.1344 C.ar      1 MOL     0.0725
      2 C5         68.1233   47.7980    8.0875 C.ar      1 MOL     0.0009
      3 C6         67.5838   48.9379    8.6841 C.ar      1 MOL     0.0187
      4 C7         65.7855   50.0253    9.9312 C.2       1 MOL    -0.0112
      5 C8         64.5015   50.4136    9.6857 C.2       1 MOL     0.0163
      6 C10        66.4148   50.8019   10.8319 C.2       1 MOL     0.0538
      7 N12        67.9307   45.4788    7.5832 N.ar      1 MOL    -0.2334
      8 C13        69.1311   45.4868    6.9655 C.ar      1 MOL     0.1153
      9 C15        69.3645   47.8434    7.4523 C.ar      1 MOL     0.0138
     10 C14        69.8752   46.6710    6.8818 C.ar      1 MOL     0.0445
     11 N16        69.5963   44.3653    6.4153 N.pl3     1 MOL    -0.3432
     12 C3         66.1847   46.5370    8.7786 C.ar      1 MOL     0.0295
     13 C2         65.6414   47.6802    9.3700 C.ar      1 MOL     0.0108
     14 C1         66.3295   48.8932    9.3149 C.ar      1 MOL    -0.0171
     15 C11        64.0285   51.4971   10.3213 C.2       1 MOL     0.0459
     16 S9         65.2966   52.0090   11.2860 S.3       1 MOL    -0.1054
     17 H161       70.3083   44.4111    5.7005 H         1 MOL     0.1442
     18 H162       69.2367   43.4698    6.7133 H         1 MOL     0.1442
@<TRIPOS>BOND
     1    2    1 ar
     2    1    7 ar
     3    1   12 ar
     4    3    2 ar
     5    2    9 ar
     6   14    3 ar
     7    4    5 1 
     8    4    6 2 
     9    4   14 1 
    10    5   15 2 
    11    6   16 1 
    12    7    8 ar
    13    8   10 ar
    14    8   11 1 
    15    9   10 ar
    16   12   13 ar
    17   13   14 ar
    18   15   16 1 
    19   17   11 1 
    20   18   11 1 
@<TRIPOS>SUBSTRUCTURE
1 MOL         1
@<TRIPOS>MOLECULE
query molecule
   18    20     1     0     0
SMALL
NO_CHARGE

@<TRIPOS>ATOM
      1 C4         63.6538   43.3044   15.2049 C.ar      1 MOL     0.0725
      2 C5         64.0184   41.9713   15.0005 C.ar      1 MOL     0.0009
      3 C6         65.1068   41.6686   14.1818 C.ar      1 MOL     0.0187
      4 C7         66.9333   42.3991   12.7320 C.2       1 MOL    -0.0112
      5 C8         66.8329   42.4127   11.3721 C.2       1 MOL     0.0163
      6 C10        68.1763   42.1324   13.1727 C.2       1 MOL     0.0538
      7 N12        62.6214   43.6176   16.0045 N.ar      1 MOL    -0.2334
      8 C13        61.9022   42.6625   16.6316 C.ar      1 MOL     0.1153
      9 C15        63.2935   40.9583   15.6288 C.ar      1 MOL     0.0138
     10 C14        62.2190   41.3091   16.4554 C.ar      1 MOL     0.0445
     11 N16        60.8737   43.0127   17.4036 N.pl3     1 MOL    -0.3432
     12 C3         64.3819   44.3217   14.5896 C.ar      1 MOL     0.0295
     13 C2         65.4676   44.0182   13.7643 C.ar      1 MOL     0.0108
     14 C1         65.8299   42.6889   13.5419 C.ar      1 MOL    -0.0171
     15 C11        67.9306   42.1456   10.6473 C.2       1 MOL     0.0459
     16 S9         69.1349   41.8911   11.7811 S.3       1 MOL    -0.1054
     17 H161       60.2270   42.3102   17.7327 H         1 MOL     0.1442
     18 H162       60.7410   43.9807   17.6595 H         1 MOL     0.1442
@<TRIPOS>BOND
     1    2    1 ar
     2    1    7 ar
     3    1   12 ar
     4    3    2 ar
     5    2    9 ar
     6   14    3 ar
     7    4    5 1 
     8    4    6 2 
     9    4   14 1 
    10    5   15 2 
    11    6   16 1 
    12    7    8 ar
    13    8   10 ar
    14    8   11 1 
    15    9   10 ar
    16   12   13 ar
    17   13   14 ar
    18   15   16 1 
    19   17   11 1 
    20   18   11 1 
@<TRIPOS>SUBSTRUCTURE
1 MOL         1
@<TRIPOS>MOLECULE
query molecule
   18    20     1     0     0
SMALL
NO_CHARGE

@<TRIPOS>ATOM
      1 C4         72.8318   47.0866    1.7664 C.ar      1 MOL     0.0725
      2 C5         72.7529   46.5171    3.0397 C.ar      1 MOL     0.0009
      3 C6         72.8462   47.3307    4.1693 C.ar      1 MOL     0.0187
      4 C7         73.1184   49.5446    5.1673 C.2       1 MOL    -0.0112
      5 C8         74.3214   49.9768    5.6423 C.2       1 MOL     0.0163
      6 C10        72.0679   50.0301    5.8538 C.2       1 MOL     0.0538
      7 N12        72.7248   46.3236    0.6666 N.ar      1 MOL    -0.2334
      8 C13        72.5425   44.9886    0.7515 C.ar      1 MOL     0.1153
      9 C15        72.5702   45.1397    3.1644 C.ar      1 MOL     0.0138
     10 C14        72.4648   44.3640    2.0033 C.ar      1 MOL     0.0445
     11 N16        72.4584   44.2630   -0.3634 N.pl3     1 MOL    -0.3432
     12 C3         73.0019   48.4642    1.6352 C.ar      1 MOL     0.0295
     13 C2         73.1023   49.2779    2.7665 C.ar      1 MOL     0.0108
     14 C1         73.0400   48.7161    4.0426 C.ar      1 MOL    -0.0171
     15 C11        74.3325   50.7858    6.7134 C.2       1 MOL     0.0459
     16 S9         72.7180   51.0043    7.0956 S.3       1 MOL    -0.1054
     17 H161       71.8085   44.5271   -1.0900 H         1 MOL     0.1442
     18 H162       73.0446   43.4490   -0.4816 H         1 MOL     0.1442
@<TRIPOS>BOND
     1    2    1 ar
     2    1    7 ar
     3    1   12 ar
     4    3    2 ar
     5    2    9 ar
     6   14    3 ar
     7    4    5 1 
     8    4    6 2 
     9    4   14 1 
    10    5   15 2 
    11    6   16 1 
    12    7    8 ar
    13    8   10 ar
    14    8   11 1 
    15    9   10 ar
    16   12   13 ar
    17   13   14 ar
    18   15   16 1 
    19   17   11 1 
    20   18   11 1 
@<TRIPOS>SUBSTRUCTURE
1 MOL         1
@<TRIPOS>MOLECULE
query molecule
   18    20     1     0     0
SMALL
NO_CHARGE

@<TRIPOS>ATOM
      1 C4         73.2942   40.4805   10.0246 C.ar      1 MOL     0.0725
      2 C5         73.7285   41.7358    9.5916 C.ar      1 MOL     0.0009
      3 C6         74.9681   42.2216   10.0087 C.ar      1 MOL     0.0187
      4 C7         77.0301   41.9407   11.2895 C.2       1 MOL    -0.0112
      5 C8         77.2909   42.1939   12.6039 C.2       1 MOL     0.0163
      6 C10        78.0906   42.1431   10.4864 C.2       1 MOL     0.0538
      7 N12        72.1131   39.9866    9.6192 N.ar      1 MOL    -0.2334
      8 C13        71.3077   40.6819    8.7881 C.ar      1 MOL     0.1153
      9 C15        72.9189   42.4838    8.7364 C.ar      1 MOL     0.0138
     10 C14        71.6900   41.9496    8.3299 C.ar      1 MOL     0.0445
     11 N16        70.1349   40.1650    8.4221 N.pl3     1 MOL    -0.3432
     12 C3         74.1042   39.7229   10.8693 C.ar      1 MOL     0.0295
     13 C2         75.3424   40.2124   11.2925 C.ar      1 MOL     0.0108
     14 C1         75.7780   41.4718   10.8775 C.ar      1 MOL    -0.0171
     15 C11        78.5170   42.6237   12.9412 C.2       1 MOL     0.0459
     16 S9         79.3595   42.6763   11.4962 S.3       1 MOL    -0.1054
     17 H161       70.0101   39.8096    7.4850 H         1 MOL     0.1442
     18 H162       69.3711   40.1287    9.0819 H         1 MOL     0.1442
@<TRIPOS>BOND
     1    2    1 ar
     2    1    7 ar
     3    1   12 ar
     4    3    2 ar
     5    2    9 ar
     6   14    3 ar
     7    4    5 1 
     8    4    6 2 
     9    4   14 1 
    10    5   15 2 
    11    6   16 1 
    12    7    8 ar
    13    8   10 ar
    14    8   11 1 
    15    9   10 ar
    16   12   13 ar
    17   13   14 ar
    18   15   16 1 
    19   17   11 1 
    20   18   11 1 
@<TRIPOS>SUBSTRUCTURE
1 MOL         1
@<TRIPOS>MOLECULE
query molecule
   18    20     1     0     0
SMALL
NO_CHARGE

@<TRIPOS>ATOM
      1 C4         66.1883   50.3386    9.7294 C.ar      1 MOL     0.0725
      2 C5         65.8458   49.3335   10.6374 C.ar      1 MOL     0.0009
      3 C6         65.4561   48.0790   10.1674 C.ar      1 MOL     0.0187
      4 C7         65.0101   46.5605    8.3055 C.2       1 MOL    -0.0112
      5 C8         63.7113   46.2795    7.9989 C.2       1 MOL     0.0163
      6 C10        65.8509   45.5412    8.0517 C.2       1 MOL     0.0538
      7 N12        66.5845   51.5466   10.1617 N.ar      1 MOL    -0.2334
      8 C13        66.6618   51.8319   11.4791 C.ar      1 MOL     0.1153
      9 C15        65.9092   49.5956   12.0062 C.ar      1 MOL     0.0138
     10 C14        66.3219   50.8638   12.4331 C.ar      1 MOL     0.0445
     11 N16        67.0429   53.0484   11.8684 N.pl3     1 MOL    -0.3432
     12 C3         66.1389   50.0789    8.3606 C.ar      1 MOL     0.0295
     13 C2         65.7420   48.8248    7.8899 C.ar      1 MOL     0.0108
     14 C1         65.3834   47.8193    8.7889 C.ar      1 MOL    -0.0171
     15 C11        63.4167   45.0604    7.5205 C.2       1 MOL     0.0459
     16 S9         64.8883   44.2666    7.4495 S.3       1 MOL    -0.1054
     17 H161       68.0193   53.2406   12.0412 H         1 MOL     0.1442
     18 H162       66.3553   53.7780   11.9905 H         1 MOL     0.1442
@<TRIPOS>BOND
     1    2    1 ar
     2    1    7 ar
     3    1   12 ar
     4    3    2 ar
     5    2    9 ar
     6   14    3 ar
     7    4    5 1 
     8    4    6 2 
     9    4   14 1 
    10    5   15 2 
    11    6   16 1 
    12    7    8 ar
    13    8   10 ar
    14    8   11 1 
    15    9   10 ar
    16   12   13 ar
    17   13   14 ar
    18   15   16 1 
    19   17   11 1 
    20   18   11 1 
@<TRIPOS>SUBSTRUCTURE
1 MOL         1
@<TRIPOS>MOLECULE
query molecule
   18    20     1     0     0
SMALL
NO_CHARGE

@<TRIPOS>ATOM
      1 C4         72.4815   48.2811    4.3356 C.ar      1 MOL     0.0725
      2 C5         73.3260   47.3299    4.9136 C.ar      1 MOL     0.0009
      3 C6         73.6142   47.3969    6.2770 C.ar      1 MOL     0.0187
      4 C7         73.3495   48.4918    8.4456 C.2       1 MOL    -0.0112
      5 C8         72.8720   47.5472    9.3055 C.2       1 MOL     0.0163
      6 C10        74.1123   49.4235    9.0462 C.2       1 MOL     0.0538
      7 N12        72.1763   48.2228    3.0292 N.ar      1 MOL    -0.2334
      8 C13        72.6739   47.2526    2.2331 C.ar      1 MOL     0.1153
      9 C15        73.8624   46.3164    4.1189 C.ar      1 MOL     0.0138
     10 C14        73.5325   46.2781    2.7586 C.ar      1 MOL     0.0445
     11 N16        72.3613   47.2389    0.9374 N.pl3     1 MOL    -0.3432
     12 C3         71.9326   49.2890    5.1270 C.ar      1 MOL     0.0295
     13 C2         72.2267   49.3602    6.4909 C.ar      1 MOL     0.0108
     14 C1         73.0814   48.4235    7.0741 C.ar      1 MOL    -0.0171
     15 C11        73.1786   47.6549   10.6079 C.2       1 MOL     0.0459
     16 S9         74.1393   49.0217   10.7050 S.3       1 MOL    -0.1054
     17 H161       71.4819   47.6258    0.6260 H         1 MOL     0.1442
     18 H162       73.0038   46.8415    0.2671 H         1 MOL     0.1442
@<TRIPOS>BOND
     1    2    1 ar
     2    1    7 ar
     3    1   12 ar
     4    3    2 ar
     5    2    9 ar
     6   14    3 ar
     7    4    5 1 
     8    4    6 2 
     9    4   14 1 
    10    5   15 2 
    11    6   16 1 
    12    7    8 ar
    13    8   10 ar
    14    8   11 1 
    15    9   10 ar
    16   12   13 ar
    17   13   14 ar
    18   15   16 1 
    19   17   11 1 
    20   18   11 1 
@<TRIPOS>SUBSTRUCTURE
1 MOL         1
@<TRIPOS>MOLECULE
query molecule
   18    20     1     0     0
SMALL
NO_CHARGE

@<TRIPOS>ATOM
      1 C4         61.4182   54.9237   16.5366 C.ar      1 MOL     0.0725
      2 C5         61.3357   53.7098   17.2233 C.ar      1 MOL     0.0009
      3 C6         62.2133   53.4485   18.2759 C.ar      1 MOL     0.0187
      4 C7         64.0701   54.1407   19.7059 C.2       1 MOL    -0.0112
      5 C8         64.0149   52.9753   20.4118 C.2       1 MOL     0.0163
      6 C10        65.0539   54.9642   20.1114 C.2       1 MOL     0.0538
      7 N12        60.5703   55.2025   15.5333 N.ar      1 MOL    -0.2334
      8 C13        59.6176   54.3248   15.1529 C.ar      1 MOL     0.1153
      9 C15        60.3664   52.7773   16.8530 C.ar      1 MOL     0.0138
     10 C14        59.4955   53.0889   15.8015 C.ar      1 MOL     0.0445
     11 N16        58.8060   54.6311   14.1410 N.pl3     1 MOL    -0.3432
     12 C3         62.3766   55.8648   16.9101 C.ar      1 MOL     0.0295
     13 C2         63.2600   55.6002   17.9596 C.ar      1 MOL     0.0108
     14 C1         63.1952   54.3841   18.6415 C.ar      1 MOL    -0.0171
     15 C11        64.8930   52.7902   21.4100 C.2       1 MOL     0.0459
     16 S9         65.8331   54.1747   21.4089 S.3       1 MOL    -0.1054
     17 H161       58.6096   55.5982   13.9260 H         1 MOL     0.1442
     18 H162       58.3874   53.8961   13.5891 H         1 MOL     0.1442
@<TRIPOS>BOND
     1    2    1 ar
     2    1    7 ar
     3    1   12 ar
     4    3    2 ar
     5    2    9 ar
     6   14    3 ar
     7    4    5 1 
     8    4    6 2 
     9    4   14 1 
    10    5   15 2 
    11    6   16 1 
    12    7    8 ar
    13    8   10 ar
    14    8   11 1 
    15    9   10 ar
    16   12   13 ar
    17   13   14 ar
    18   15   16 1 
    19   17   11 1 
    20   18   11 1 
@<TRIPOS>SUBSTRUCTURE
1 MOL         1
@<TRIPOS>MOLECULE
query molecule
   18    20     1     0     0
SMALL
NO_CHARGE

@<TRIPOS>ATOM
      1 C4         78.0882   45.0855   10.2603 C.ar      1 MOL     0.0725
      2 C5         77.3557   44.2904   11.1452 C.ar      1 MOL     0.0009
      3 C6         77.7929   42.9987   11.4399 C.ar      1 MOL     0.0187
      4 C7         79.4095   41.1908   11.1407 C.2       1 MOL    -0.0112
      5 C8         79.1341   40.1356   10.3218 C.2       1 MOL     0.0163
      6 C10        80.1785   40.8618   12.1947 C.2       1 MOL     0.0538
      7 N12        77.6950   46.3382    9.9784 N.ar      1 MOL    -0.2334
      8 C13        76.5842   46.8684   10.5330 C.ar      1 MOL     0.1153
      9 C15        76.1995   44.8047   11.7324 C.ar      1 MOL     0.0138
     10 C14        75.8073   46.1124   11.4207 C.ar      1 MOL     0.0445
     11 N16        76.2171   48.1096   10.2146 N.pl3     1 MOL    -0.3432
     12 C3         79.2514   44.5815    9.6798 C.ar      1 MOL     0.0295
     13 C2         79.6853   43.2856    9.9696 C.ar      1 MOL     0.0108
     14 C1         78.9519   42.4784   10.8406 C.ar      1 MOL    -0.0171
     15 C11        79.6167   38.9273   10.6517 C.2       1 MOL     0.0459
     16 S9         80.4752   39.1858   12.0647 S.3       1 MOL    -0.1054
     17 H161       75.6574   48.6513   10.8575 H         1 MOL     0.1442
     18 H162       76.4988   48.5084    9.3305 H         1 MOL     0.1442
@<TRIPOS>BOND
     1    2    1 ar
     2    1    7 ar
     3    1   12 ar
     4    3    2 ar
     5    2    9 ar
     6   14    3 ar
     7    4    5 1 
     8    4    6 2 
     9    4   14 1 
    10    5   15 2 
    11    6   16 1 
    12    7    8 ar
    13    8   10 ar
    14    8   11 1 
    15    9   10 ar
    16   12   13 ar
    17   13   14 ar
    18   15   16 1 
    19   17   11 1 
    20   18   11 1 
@<TRIPOS>SUBSTRUCTURE
1 MOL         1
@<TRIPOS>MOLECULE
query molecule
   18    20     1     0     0
SMALL
NO_CHARGE

@<TRIPOS>ATOM
      1 C4         68.7786   48.9502    7.2677 C.ar      1 MOL     0.0725
      2 C5         69.2657   47.7065    7.6778 C.ar      1 MOL     0.0009
      3 C6         70.6199   47.5580    7.9785 C.ar      1 MOL     0.0187
      4 C7         72.8632   48.5083    8.1682 C.2       1 MOL    -0.0112
      5 C8         73.8249   48.6334    7.2094 C.2       1 MOL     0.0163
      6 C10        73.3621   48.3001    9.4003 C.2       1 MOL     0.0538
      7 N12        67.4752   49.1188    6.9924 N.ar      1 MOL    -0.2334
      8 C13        66.5963   48.0993    7.0975 C.ar      1 MOL     0.1153
      9 C15        68.3861   46.6297    7.7920 C.ar      1 MOL     0.0138
     10 C14        67.0319   46.8287    7.4962 C.ar      1 MOL     0.0445
     11 N16        65.3133   48.3022    6.7985 N.pl3     1 MOL    -0.3432
     12 C3         69.6504   50.0332    7.1637 C.ar      1 MOL     0.0295
     13 C2         71.0078   49.8826    7.4581 C.ar      1 MOL     0.0108
     14 C1         71.5063   48.6405    7.8537 C.ar      1 MOL    -0.0171
     15 C11        75.1111   48.5158    7.5747 C.2       1 MOL     0.0459
     16 S9         75.0597   48.2559    9.2271 S.3       1 MOL    -0.1054
     17 H161       64.8743   49.1823    7.0282 H         1 MOL     0.1442
     18 H162       64.7802   47.5758    6.3424 H         1 MOL     0.1442
@<TRIPOS>BOND
     1    2    1 ar
     2    1    7 ar
     3    1   12 ar
     4    3    2 ar
     5    2    9 ar
     6   14    3 ar
     7    4    5 1 
     8    4    6 2 
     9    4   14 1 
    10    5   15 2 
    11    6   16 1 
    12    7    8 ar
    13    8   10 ar
    14    8   11 1 
    15    9   10 ar
    16   12   13 ar
    17   13   14 ar
    18   15   16 1 
    19   17   11 1 
    20   18   11 1 
@<TRIPOS>SUBSTRUCTURE
1 MOL         1
@<TRIPOS>MOLECULE
query molecule
   18    20     1     0     0
SMALL
NO_CHARGE

@<TRIPOS>ATOM
      1 C4         70.2136   41.4034    8.1377 C.ar      1 MOL     0.0725
      2 C5         71.5152   41.1987    8.6025 C.ar      1 MOL     0.0009
      3 C6         72.5255   40.8553    7.7037 C.ar      1 MOL     0.0187
      4 C7         73.2537   40.3642    5.4234 C.2       1 MOL    -0.0112
      5 C8         74.1938   41.2795    5.0518 C.2       1 MOL     0.0163
      6 C10        73.4375   39.1537    4.8652 C.2       1 MOL     0.0538
      7 N12        69.2311   41.7533    8.9835 N.ar      1 MOL    -0.2334
      8 C13        69.4634   41.9147   10.3036 C.ar      1 MOL     0.1153
      9 C15        71.7896   41.3517    9.9617 C.ar      1 MOL     0.0138
     10 C14        70.7482   41.7137   10.8250 C.ar      1 MOL     0.0445
     11 N16        68.4580   42.2457   11.1137 N.pl3     1 MOL    -0.3432
     12 C3         69.9356   41.2641    6.7786 C.ar      1 MOL     0.0295
     13 C2         70.9460   40.9135    5.8797 C.ar      1 MOL     0.0108
     14 C1         72.2460   40.6920    6.3368 C.ar      1 MOL    -0.0171
     15 C11        75.1477   40.9010    4.1866 C.2       1 MOL     0.0459
     16 S9         74.8159   39.2920    3.8679 S.3       1 MOL    -0.1054
     17 H161       68.1076   43.1929   11.1229 H         1 MOL     0.1442
     18 H162       68.0466   41.5492   11.7184 H         1 MOL     0.1442
@<TRIPOS>BOND
     1    2    1 ar
     2    1    7 ar
     3    1   12 ar
     4    3    2 ar
     5    2    9 ar
     6   14    3 ar
     7    4    5 1 
     8    4    6 2 
     9    4   14 1 
    10    5   15 2 
    11    6   16 1 
    12    7    8 ar
    13    8   10 ar
    14    8   11 1 
    15    9   10 ar
    16   12   13 ar
    17   13   14 ar
    18   15   16 1 
    19   17   11 1 
    20   18   11 1 
@<TRIPOS>SUBSTRUCTURE
1 MOL         1
@<TRIPOS>MOLECULE
query molecule
   18    20     1     0     0
SMALL
NO_CHARGE

@<TRIPOS>ATOM
      1 C4         63.1708   47.7292   16.6917 C.ar      1 MOL     0.0725
      2 C5         64.3971   48.3502   16.4415 C.ar      1 MOL     0.0009
      3 C6         64.5696   49.6970   16.7622 C.ar      1 MOL     0.0187
      4 C7         63.6824   51.7908   17.6567 C.2       1 MOL    -0.0112
      5 C8         63.1636   52.2946   18.8129 C.2       1 MOL     0.0163
      6 C10        64.3794   52.6959   16.9457 C.2       1 MOL     0.0538
      7 N12        62.9906   46.4291   16.4083 N.ar      1 MOL    -0.2334
      8 C13        63.9792   45.6823   15.8720 C.ar      1 MOL     0.1153
      9 C15        65.4390   47.6095   15.8829 C.ar      1 MOL     0.0138
     10 C14        65.2265   46.2562   15.5927 C.ar      1 MOL     0.0445
     11 N16        63.7559   44.3991   15.5887 N.pl3     1 MOL    -0.3432
     12 C3         62.1296   48.4609   17.2613 C.ar      1 MOL     0.0295
     13 C2         62.3002   49.8113   17.5759 C.ar      1 MOL     0.0108
     14 C1         63.5167   50.4441   17.3156 C.ar      1 MOL    -0.0171
     15 C11        63.3718   53.5900   19.0961 C.2       1 MOL     0.0459
     16 S9         64.2937   54.1592   17.8206 S.3       1 MOL    -0.1054
     17 H161       64.3155   43.9314   14.8901 H         1 MOL     0.1442
     18 H162       63.0270   43.8946   16.0727 H         1 MOL     0.1442
@<TRIPOS>BOND
     1    2    1 ar
     2    1    7 ar
     3    1   12 ar
     4    3    2 ar
     5    2    9 ar
     6   14    3 ar
     7    4    5 1 
     8    4    6 2 
     9    4   14 1 
    10    5   15 2 
    11    6   16 1 
    12    7    8 ar
    13    8   10 ar
    14    8   11 1 
    15    9   10 ar
    16   12   13 ar
    17   13   14 ar
    18   15   16 1 
    19   17   11 1 
    20   18   11 1 
@<TRIPOS>SUBSTRUCTURE
1 MOL         1
@<TRIPOS>MOLECULE
query molecule
   18    20     1     0     0
SMALL
NO_CHARGE

@<TRIPOS>ATOM
      1 C4         75.1056   57.3963    7.9000 C.ar      1 MOL     0.0725
      2 C5         75.6407   56.3695    8.6819 C.ar      1 MOL     0.0009
      3 C6         76.3324   56.6794    9.8532 C.ar      1 MOL     0.0187
      4 C7         77.1938   58.3380   11.4275 C.2       1 MOL    -0.0112
      5 C8         77.6094   59.6128   11.6762 C.2       1 MOL     0.0163
      6 C10        77.4617   57.4838   12.4319 C.2       1 MOL     0.0538
      7 N12        74.4199   57.1182    6.7795 N.ar      1 MOL    -0.2334
      8 C13        74.2278   55.8463    6.3696 C.ar      1 MOL     0.1153
      9 C15        75.4656   55.0435    8.2850 C.ar      1 MOL     0.0138
     10 C14        74.7499   54.7782    7.1110 C.ar      1 MOL     0.0445
     11 N16        73.5564   55.6118    5.2423 N.pl3     1 MOL    -0.3432
     12 C3         75.2665   58.7228    8.2979 C.ar      1 MOL     0.0295
     13 C2         75.9652   59.0334    9.4672 C.ar      1 MOL     0.0108
     14 C1         76.5164   58.0152   10.2466 C.ar      1 MOL    -0.0171
     15 C11        78.2371   59.8659   12.8354 C.2       1 MOL     0.0459
     16 S9         78.2637   58.3946   13.6324 S.3       1 MOL    -0.1054
     17 H161       73.6864   56.2145    4.4423 H         1 MOL     0.1442
     18 H162       72.9176   54.8314    5.1881 H         1 MOL     0.1442
@<TRIPOS>BOND
     1    2    1 ar
     2    1    7 ar
     3    1   12 ar
     4    3    2 ar
     5    2    9 ar
     6   14    3 ar
     7    4    5 1 
     8    4    6 2 
     9    4   14 1 
    10    5   15 2 
    11    6   16 1 
    12    7    8 ar
    13    8   10 ar
    14    8   11 1 
    15    9   10 ar
    16   12   13 ar
    17   13   14 ar
    18   15   16 1 
    19   17   11 1 
    20   18   11 1 
@<TRIPOS>SUBSTRUCTURE
1 MOL         1
@<TRIPOS>MOLECULE
query molecule
   18    20     1     0     0
SMALL
NO_CHARGE

@<TRIPOS>ATOM
      1 C4         71.9639   43.4700    5.1023 C.ar      1 MOL     0.0725
      2 C5         72.5124   43.7597    6.3542 C.ar      1 MOL     0.0009
      3 C6         73.2397   44.9363    6.5361 C.ar      1 MOL     0.0187
      4 C7         74.1593   47.0165    5.6425 C.2       1 MOL    -0.0112
      5 C8         74.2154   47.9557    4.6553 C.2       1 MOL     0.0163
      6 C10        74.8041   47.3831    6.7651 C.2       1 MOL     0.0538
      7 N12        71.2442   42.3524    4.9115 N.ar      1 MOL    -0.2334
      8 C13        71.0300   41.4738    5.9140 C.ar      1 MOL     0.1153
      9 C15        72.3151   42.8710    7.4113 C.ar      1 MOL     0.0138
     10 C14        71.5641   41.7105    7.1875 C.ar      1 MOL     0.0445
     11 N16        70.3248   40.3671    5.6805 N.pl3     1 MOL    -0.3432
     12 C3         72.1471   44.3602    4.0452 C.ar      1 MOL     0.0295
     13 C2         72.8813   45.5350    4.2257 C.ar      1 MOL     0.0108
     14 C1         73.4460   45.8256    5.4685 C.ar      1 MOL    -0.0171
     15 C11        74.8991   49.0872    4.8875 C.2       1 MOL     0.0459
     16 S9         75.4664   48.9252    6.4536 S.3       1 MOL    -0.1054
     17 H161       70.0200   39.7904    6.4516 H         1 MOL     0.1442
     18 H162       70.0954   40.1052    4.7325 H         1 MOL     0.1442
@<TRIPOS>BOND
     1    2    1 ar
     2    1    7 ar
     3    1   12 ar
     4    3    2 ar
     5    2    9 ar
     6   14    3 ar
     7    4    5 1 
     8    4    6 2 
     9    4   14 1 
    10    5   15 2 
    11    6   16 1 
    12    7    8 ar
    13    8   10 ar
    14    8   11 1 
    15    9   10 ar
    16   12   13 ar
    17   13   14 ar
    18   15   16 1 
    19   17   11 1 
    20   18   11 1 
@<TRIPOS>SUBSTRUCTURE
1 MOL         1
@<TRIPOS>MOLECULE
query molecule
   18    20     1     0     0
SMALL
NO_CHARGE

@<TRIPOS>ATOM
      1 C4         72.3473   49.4611   12.8694 C.ar      1 MOL     0.0725
      2 C5         72.6396   48.0952   12.8413 C.ar      1 MOL     0.0009
      3 C6         73.4525   47.5403   13.8301 C.ar      1 MOL     0.0187
      4 C7         74.8024   47.7960   15.8510 C.2       1 MOL    -0.0112
      5 C8         74.8322   46.4513   16.0762 C.2       1 MOL     0.0163
      6 C10        75.6369   48.4890   16.6471 C.2       1 MOL     0.0538
      7 N12        71.5513   50.0109   11.9382 N.ar      1 MOL    -0.2334
      8 C13        71.0123   49.2697   10.9468 C.ar      1 MOL     0.1153
      9 C15        72.1036   47.3003   11.8278 C.ar      1 MOL     0.0138
     10 C14        71.2791   47.8966   10.8658 C.ar      1 MOL     0.0445
     11 N16        70.2410   49.8554   10.0311 N.pl3     1 MOL    -0.3432
     12 C3         72.8699   50.2584   13.8868 C.ar      1 MOL     0.0295
     13 C2         73.6895   49.7040   14.8730 C.ar      1 MOL     0.0108
     14 C1         73.9995   48.3434   14.8445 C.ar      1 MOL    -0.0171
     15 C11        75.6368   45.9826   17.0430 C.2       1 MOL     0.0459
     16 S9         76.3932   47.3419   17.6601 S.3       1 MOL    -0.1054
     17 H161       70.6569   50.2583    9.2035 H         1 MOL     0.1442
     18 H162       69.2408   49.8965   10.1648 H         1 MOL     0.1442
@<TRIPOS>BOND
     1    2    1 ar
     2    1    7 ar
     3    1   12 ar
     4    3    2 ar
     5    2    9 ar
     6   14    3 ar
     7    4    5 1 
     8    4    6 2 
     9    4   14 1 
    10    5   15 2 
    11    6   16 1 
    12    7    8 ar
    13    8   10 ar
    14    8   11 1 
    15    9   10 ar
    16   12   13 ar
    17   13   14 ar
    18   15   16 1 
    19   17   11 1 
    20   18   11 1 
@<TRIPOS>SUBSTRUCTURE
1 MOL         1
@<TRIPOS>MOLECULE
query molecule
   18    20     1     0     0
SMALL
NO_CHARGE

@<TRIPOS>ATOM
      1 C4         64.8325   51.5337   10.0433 C.ar      1 MOL     0.0725
      2 C5         63.6409   50.8136   10.1593 C.ar      1 MOL     0.0009
      3 C6         63.6329   49.4420    9.9042 C.ar      1 MOL     0.0187
      4 C7         64.8149   47.3999    9.2684 C.2       1 MOL    -0.0112
      5 C8         65.1263   46.9022    8.0375 C.2       1 MOL     0.0163
      6 C10        64.5759   46.4446   10.1854 C.2       1 MOL     0.0538
      7 N12        64.8653   52.8508   10.3033 N.ar      1 MOL    -0.2334
      8 C13        63.7556   53.5215   10.6794 C.ar      1 MOL     0.1153
      9 C15        62.4739   51.4762   10.5407 C.ar      1 MOL     0.0138
     10 C14        62.5319   52.8504   10.8032 C.ar      1 MOL     0.0445
     11 N16        63.8251   54.8321   10.9117 N.pl3     1 MOL    -0.3432
     12 C3         66.0045   50.8749    9.6746 C.ar      1 MOL     0.0295
     13 C2         65.9951   49.5027    9.4125 C.ar      1 MOL     0.0108
     14 C1         64.8065   48.7778    9.5108 C.ar      1 MOL    -0.0171
     15 C11        65.1369   45.5704    7.8703 C.2       1 MOL     0.0459
     16 S9         64.7490   44.9517    9.3760 S.3       1 MOL    -0.1054
     17 H161       64.3934   55.1811   11.6702 H         1 MOL     0.1442
     18 H162       63.3095   55.4763   10.3293 H         1 MOL     0.1442
@<TRIPOS>BOND
     1    2    1 ar
     2    1    7 ar
     3    1   12 ar
     4    3    2 ar
     5    2    9 ar
     6   14    3 ar
     7    4    5 1 
     8    4    6 2 
     9    4   14 1 
    10    5   15 2 
    11    6   16 1 
    12    7    8 ar
    13    8   10 ar
    14    8   11 1 
    15    9   10 ar
    16   12   13 ar
    17   13   14 ar
    18   15   16 1 
    19   17   11 1 
    20   18   11 1 
@<TRIPOS>SUBSTRUCTURE
1 MOL         1
@<TRIPOS>MOLECULE
query molecule
   18    20     1     0     0
SMALL
NO_CHARGE

@<TRIPOS>ATOM
      1 C4         63.6546   46.6548   11.0832 C.ar      1 MOL     0.0725
      2 C5         64.1166   45.8844   12.1532 C.ar      1 MOL     0.0009
      3 C6         64.2122   46.4514   13.4244 C.ar      1 MOL     0.0187
      4 C7         63.9447   48.3717   14.9117 C.2       1 MOL    -0.0112
      5 C8         64.4200   49.6380   15.0864 C.2       1 MOL     0.0163
      6 C10        63.5341   47.7934   16.0551 C.2       1 MOL     0.0538
      7 N12        63.5368   46.1225    9.8560 N.ar      1 MOL    -0.2334
      8 C13        63.8619   44.8347    9.6136 C.ar      1 MOL     0.1153
      9 C15        64.4665   44.5513   11.9373 C.ar      1 MOL     0.0138
     10 C14        64.3385   44.0191   10.6484 C.ar      1 MOL     0.0445
     11 N16        63.7476   44.3478    8.3781 N.pl3     1 MOL    -0.3432
     12 C3         63.2916   47.9841   11.2952 C.ar      1 MOL     0.0295
     13 C2         63.3940   48.5538   12.5667 C.ar      1 MOL     0.0108
     14 C1         63.8689   47.7965   13.6386 C.ar      1 MOL    -0.0171
     15 C11        64.4506   50.1435   16.3295 C.2       1 MOL     0.0459
     16 S9         63.8172   48.9322   17.2948 S.3       1 MOL    -0.1054
     17 H161       63.2469   43.4852    8.2195 H         1 MOL     0.1442
     18 H162       64.1617   44.8416    7.6005 H         1 MOL     0.1442
@<TRIPOS>BOND
     1    2    1 ar
     2    1    7 ar
     3    1   12 ar
     4    3    2 ar
     5    2    9 ar
     6   14    3 ar
     7    4    5 1 
     8    4    6 2 
     9    4   14 1 
    10    5   15 2 
    11    6   16 1 
    12    7    8 ar
    13    8   10 ar
    14    8   11 1 
    15    9   10 ar
    16   12   13 ar
    17   13   14 ar
    18   15   16 1 
    19   17   11 1 
    20   18   11 1 
@<TRIPOS>SUBSTRUCTURE
1 MOL         1
@<TRIPOS>MOLECULE
query molecule
   18    20     1     0     0
SMALL
NO_CHARGE

@<TRIPOS>ATOM
      1 C4         69.0103   47.6960    8.3174 C.ar      1 MOL     0.0725
      2 C5         68.4195   47.0859    7.2081 C.ar      1 MOL     0.0009
      3 C6         68.7468   45.7684    6.8861 C.ar      1 MOL     0.0187
      4 C7         70.0051   43.7256    7.3501 C.2       1 MOL    -0.0112
      5 C8         69.2857   42.6884    7.8664 C.2       1 MOL     0.0163
      6 C10        70.9858   43.3323    6.5170 C.2       1 MOL     0.0538
      7 N12        68.6942   48.9566    8.6555 N.ar      1 MOL    -0.2334
      8 C13        67.8039   49.6751    7.9386 C.ar      1 MOL     0.1153
      9 C15        67.4991   47.8011    6.4416 C.ar      1 MOL     0.0138
     10 C14        67.1878   49.1153    6.8115 C.ar      1 MOL     0.0445
     11 N16        67.5295   50.9295    8.2960 N.pl3     1 MOL    -0.3432
     12 C3         69.9215   46.9823    9.0946 C.ar      1 MOL     0.0295
     13 C2         70.2545   45.6653    8.7680 C.ar      1 MOL     0.0108
     14 C1         69.6811   45.0525    7.6529 C.ar      1 MOL    -0.0171
     15 C11        69.6318   41.4375    7.5243 C.2       1 MOL     0.0459
     16 S9         70.9239   41.6269    6.4778 S.3       1 MOL    -0.1054
     17 H161       67.7809   51.6947    7.6867 H         1 MOL     0.1442
     18 H162       67.0702   51.1147    9.1762 H         1 MOL     0.1442
@<TRIPOS>BOND
     1    2    1 ar
     2    1    7 ar
     3    1   12 ar
     4    3    2 ar
     5    2    9 ar
     6   14    3 ar
     7    4    5 1 
     8    4    6 2 
     9    4   14 1 
    10    5   15 2 
    11    6   16 1 
    12    7    8 ar
    13    8   10 ar
    14    8   11 1 
    15    9   10 ar
    16   12   13 ar
    17   13   14 ar
    18   15   16 1 
    19   17   11 1 
    20   18   11 1 
@<TRIPOS>SUBSTRUCTURE
1 MOL         1
@<TRIPOS>MOLECULE
query molecule
   18    20     1     0     0
SMALL
NO_CHARGE

@<TRIPOS>ATOM
      1 C4         71.6004   50.0235    8.6493 C.ar      1 MOL     0.0725
      2 C5         70.6486   49.1221    8.1661 C.ar      1 MOL     0.0009
      3 C6         69.3294   49.2018    8.6133 C.ar      1 MOL     0.0187
      4 C7         67.6265   50.2667   10.0052 C.2       1 MOL    -0.0112
      5 C8         67.3208   50.2013   11.3326 C.2       1 MOL     0.0163
      6 C10        66.5540   50.4776    9.2204 C.2       1 MOL     0.0538
      7 N12        72.8708   49.9759    8.2169 N.ar      1 MOL    -0.2334
      8 C13        73.2714   49.0597    7.3097 C.ar      1 MOL     0.1153
      9 C15        71.0292   48.1586    7.2316 C.ar      1 MOL     0.0138
     10 C14        72.3604   48.1262    6.7982 C.ar      1 MOL     0.0445
     11 N16        74.5453   49.0335    6.9184 N.pl3     1 MOL    -0.3432
     12 C3         71.2233   50.9965    9.5739 C.ar      1 MOL     0.0295
     13 C2         69.9039   51.0718   10.0269 C.ar      1 MOL     0.0108
     14 C1         68.9495   50.1661    9.5615 C.ar      1 MOL    -0.0171
     15 C11        66.0355   50.3238   11.6995 C.2       1 MOL     0.0459
     16 S9         65.2057   50.5535   10.2645 S.3       1 MOL    -0.1054
     17 H161       75.2371   48.5602    7.4819 H         1 MOL     0.1442
     18 H162       74.8187   49.4869    6.0583 H         1 MOL     0.1442
@<TRIPOS>BOND
     1    2    1 ar
     2    1    7 ar
     3    1   12 ar
     4    3    2 ar
     5    2    9 ar
     6   14    3 ar
     7    4    5 1 
     8    4    6 2 
     9    4   14 1 
    10    5   15 2 
    11    6   16 1 
    12    7    8 ar
    13    8   10 ar
    14    8   11 1 
    15    9   10 ar
    16   12   13 ar
    17   13   14 ar
    18   15   16 1 
    19   17   11 1 
    20   18   11 1 
@<TRIPOS>SUBSTRUCTURE
1 MOL         1
@<TRIPOS>MOLECULE
query molecule
   18    20     1     0     0
SMALL
NO_CHARGE

@<TRIPOS>ATOM
      1 C4         69.2816   48.1223    9.3658 C.ar      1 MOL     0.0725
      2 C5         70.6712   48.0092    9.4561 C.ar      1 MOL     0.0009
      3 C6         71.3613   48.7177   10.4402 C.ar      1 MOL     0.0187
      4 C7         71.3560   50.2646   12.3319 C.2       1 MOL    -0.0112
      5 C8         72.3560   49.6788   13.0505 C.2       1 MOL     0.0163
      6 C10        71.1482   51.5532   12.6588 C.2       1 MOL     0.0538
      7 N12        68.5969   47.4338    8.4384 N.ar      1 MOL    -0.2334
      8 C13        69.2226   46.6169    7.5643 C.ar      1 MOL     0.1153
      9 C15        71.3506   47.1780    8.5652 C.ar      1 MOL     0.0138
     10 C14        70.6156   46.4726    7.6045 C.ar      1 MOL     0.0445
     11 N16        68.5095   45.9637    6.6469 N.pl3     1 MOL    -0.3432
     12 C3         68.5958   48.9418   10.2612 C.ar      1 MOL     0.0295
     13 C2         69.2876   49.6567   11.2422 C.ar      1 MOL     0.0108
     14 C1         70.6772   49.5619   11.3304 C.ar      1 MOL    -0.0171
     15 C11        72.9841   50.4093   13.9852 C.2       1 MOL     0.0459
     16 S9         72.2578   51.9148   13.9046 S.3       1 MOL    -0.1054
     17 H161       67.8493   45.2543    6.9314 H         1 MOL     0.1442
     18 H162       68.6295   46.1782    5.6673 H         1 MOL     0.1442
@<TRIPOS>BOND
     1    2    1 ar
     2    1    7 ar
     3    1   12 ar
     4    3    2 ar
     5    2    9 ar
     6   14    3 ar
     7    4    5 1 
     8    4    6 2 
     9    4   14 1 
    10    5   15 2 
    11    6   16 1 
    12    7    8 ar
    13    8   10 ar
    14    8   11 1 
    15    9   10 ar
    16   12   13 ar
    17   13   14 ar
    18   15   16 1 
    19   17   11 1 
    20   18   11 1 
@<TRIPOS>SUBSTRUCTURE
1 MOL         1
@<TRIPOS>MOLECULE
query molecule
   18    20     1     0     0
SMALL
NO_CHARGE

@<TRIPOS>ATOM
      1 C4         72.1891   44.4088    9.1334 C.ar      1 MOL     0.0725
      2 C5         73.1226   45.4473    9.0888 C.ar      1 MOL     0.0009
      3 C6         72.6866   46.7648    8.9459 C.ar      1 MOL     0.0187
      4 C7         70.8679   48.3780    8.6980 C.2       1 MOL    -0.0112
      5 C8         69.6709   48.7678    9.2223 C.2       1 MOL     0.0163
      6 C10        71.5475   49.3823    8.1148 C.2       1 MOL     0.0538
      7 N12        72.5870   43.1358    9.2899 N.ar      1 MOL    -0.2334
      8 C13        73.8937   42.8163    9.4048 C.ar      1 MOL     0.1153
      9 C15        74.4817   45.1524    9.1992 C.ar      1 MOL     0.0138
     10 C14        74.8730   43.8173    9.3582 C.ar      1 MOL     0.0445
     11 N16        74.2500   41.5392    9.5414 N.pl3     1 MOL    -0.3432
     12 C3         70.8288   44.6983    9.0360 C.ar      1 MOL     0.0295
     13 C2         70.3927   46.0170    8.8860 C.ar      1 MOL     0.0108
     14 C1         71.3186   47.0596    8.8250 C.ar      1 MOL    -0.0171
     15 C11        69.3006   50.0508    9.0858 C.2       1 MOL     0.0459
     16 S9         70.5684   50.7724    8.2657 S.3       1 MOL    -0.1054
     17 H161       75.2243   41.2783    9.4892 H         1 MOL     0.1442
     18 H162       73.5456   40.8323    9.6971 H         1 MOL     0.1442
@<TRIPOS>BOND
     1    2    1 ar
     2    1    7 ar
     3    1   12 ar
     4    3    2 ar
     5    2    9 ar
     6   14    3 ar
     7    4    5 1 
     8    4    6 2 
     9    4   14 1 
    10    5   15 2 
    11    6   16 1 
    12    7    8 ar
    13    8   10 ar
    14    8   11 1 
    15    9   10 ar
    16   12   13 ar
    17   13   14 ar
    18   15   16 1 
    19   17   11 1 
    20   18   11 1 
@<TRIPOS>SUBSTRUCTURE
1 MOL         1
@<TRIPOS>MOLECULE
query molecule
   18    20     1     0     0
SMALL
NO_CHARGE

@<TRIPOS>ATOM
      1 C4         63.5407   47.1496    5.4446 C.ar      1 MOL     0.0725
      2 C5         63.8022   46.2454    6.4770 C.ar      1 MOL     0.0009
      3 C6         64.4409   46.6845    7.6371 C.ar      1 MOL     0.0187
      4 C7         65.4706   48.4794    8.9370 C.2       1 MOL    -0.0112
      5 C8         66.7420   48.0981    9.2498 C.2       1 MOL     0.0163
      6 C10        64.9399   49.3436    9.8212 C.2       1 MOL     0.0538
      7 N12        62.9097   46.7512    4.3282 N.ar      1 MOL    -0.2334
      8 C13        62.5121   45.4715    4.1634 C.ar      1 MOL     0.1153
      9 C15        63.4097   44.9139    6.3379 C.ar      1 MOL     0.0138
     10 C14        62.7564   44.5210    5.1633 C.ar      1 MOL     0.0445
     11 N16        61.9040   45.1111    3.0333 N.pl3     1 MOL    -0.3432
     12 C3         63.9193   48.4842    5.5829 C.ar      1 MOL     0.0295
     13 C2         64.5651   48.9224    6.7417 C.ar      1 MOL     0.0108
     14 C1         64.8443   48.0233    7.7720 C.ar      1 MOL    -0.0171
     15 C11        67.2976   48.5839   10.3710 C.2       1 MOL     0.0459
     16 S9         66.1276   49.5872   11.0228 S.3       1 MOL    -0.1054
     17 H161       61.0150   44.6331    3.0685 H         1 MOL     0.1442
     18 H162       62.3324   45.3159    2.1419 H         1 MOL     0.1442
@<TRIPOS>BOND
     1    2    1 ar
     2    1    7 ar
     3    1   12 ar
     4    3    2 ar
     5    2    9 ar
     6   14    3 ar
     7    4    5 1 
     8    4    6 2 
     9    4   14 1 
    10    5   15 2 
    11    6   16 1 
    12    7    8 ar
    13    8   10 ar
    14    8   11 1 
    15    9   10 ar
    16   12   13 ar
    17   13   14 ar
    18   15   16 1 
    19   17   11 1 
    20   18   11 1 
@<TRIPOS>SUBSTRUCTURE
1 MOL         1
@<TRIPOS>MOLECULE
query molecule
   18    20     1     0     0
SMALL
NO_CHARGE

@<TRIPOS>ATOM
      1 C4         65.6892   47.9813   20.3700 C.ar      1 MOL     0.0725
      2 C5         64.7751   47.0004   20.7626 C.ar      1 MOL     0.0009
      3 C6         63.4100   47.2887   20.7693 C.ar      1 MOL     0.0187
      4 C7         61.5759   48.8588   20.3925 C.2       1 MOL    -0.0112
      5 C8         60.7761   48.4528   19.3652 C.2       1 MOL     0.0163
      6 C10        60.9081   49.5057   21.3651 C.2       1 MOL     0.0538
      7 N12        67.0055   47.7179   20.3380 N.ar      1 MOL    -0.2334
      8 C13        67.4891   46.5061   20.6851 C.ar      1 MOL     0.1153
      9 C15        65.2406   45.7385   21.1329 C.ar      1 MOL     0.0138
     10 C14        66.6179   45.4882   21.0949 C.ar      1 MOL     0.0445
     11 N16        68.8039   46.2888   20.6569 N.pl3     1 MOL    -0.3432
     12 C3         65.2291   49.2404   19.9870 C.ar      1 MOL     0.0295
     13 C2         63.8627   49.5312   20.0004 C.ar      1 MOL     0.0108
     14 C1         62.9432   48.5626   20.4056 C.ar      1 MOL    -0.0171
     15 C11        59.4681   48.7497   19.4174 C.2       1 MOL     0.0459
     16 S9         59.2768   49.5656   20.8660 S.3       1 MOL    -0.1054
     17 H161       69.4051   46.8984   20.1213 H         1 MOL     0.1442
     18 H162       69.1988   45.5145   21.1712 H         1 MOL     0.1442
@<TRIPOS>BOND
     1    2    1 ar
     2    1    7 ar
     3    1   12 ar
     4    3    2 ar
     5    2    9 ar
     6   14    3 ar
     7    4    5 1 
     8    4    6 2 
     9    4   14 1 
    10    5   15 2 
    11    6   16 1 
    12    7    8 ar
    13    8   10 ar
    14    8   11 1 
    15    9   10 ar
    16   12   13 ar
    17   13   14 ar
    18   15   16 1 
    19   17   11 1 
    20   18   11 1 
@<TRIPOS>SUBSTRUCTURE
1 MOL         1
@<TRIPOS>MOLECULE
query molecule
   18    20     1     0     0
SMALL
NO_CHARGE

@<TRIPOS>ATOM
      1 C4         68.0308   53.1785   11.4572 C.ar      1 MOL     0.0725
      2 C5         69.2851   53.3747   10.8740 C.ar      1 MOL     0.0009
      3 C6         70.3843   52.6497   11.3351 C.ar      1 MOL     0.0187
      4 C7         71.3411   50.9929   12.8553 C.2       1 MOL    -0.0112
      5 C8         71.5934   49.7415   12.3756 C.2       1 MOL     0.0163
      6 C10        72.2556   51.4172   13.7465 C.2       1 MOL     0.0538
      7 N12        66.9566   53.8521   11.0150 N.ar      1 MOL    -0.2334
      8 C13        67.0504   54.7389   10.0014 C.ar      1 MOL     0.1153
      9 C15        69.4193   54.2876    9.8276 C.ar      1 MOL     0.0138
     10 C14        68.2857   54.9808    9.3859 C.ar      1 MOL     0.0445
     11 N16        65.9644   55.4008    9.6024 N.pl3     1 MOL    -0.3432
     12 C3         67.8879   52.2584   12.4949 C.ar      1 MOL     0.0295
     13 C2         68.9900   51.5376   12.9612 C.ar      1 MOL     0.0108
     14 C1         70.2499   51.7379   12.3951 C.ar      1 MOL    -0.0171
     15 C11        72.6664   49.0828   12.8408 C.2       1 MOL     0.0459
     16 S9         73.3782   50.1433   13.9221 S.3       1 MOL    -0.1054
     17 H161       65.1825   55.5140   10.2316 H         1 MOL     0.1442
     18 H162       65.9234   55.7889    8.6709 H         1 MOL     0.1442
@<TRIPOS>BOND
     1    2    1 ar
     2    1    7 ar
     3    1   12 ar
     4    3    2 ar
     5    2    9 ar
     6   14    3 ar
     7    4    5 1 
     8    4    6 2 
     9    4   14 1 
    10    5   15 2 
    11    6   16 1 
    12    7    8 ar
    13    8   10 ar
    14    8   11 1 
    15    9   10 ar
    16   12   13 ar
    17   13   14 ar
    18   15   16 1 
    19   17   11 1 
    20   18   11 1 
@<TRIPOS>SUBSTRUCTURE
1 MOL         1
@<TRIPOS>MOLECULE
query molecule
   18    20     1     0     0
SMALL
NO_CHARGE

@<TRIPOS>ATOM
      1 C4         75.3312   45.9854    6.7784 C.ar      1 MOL     0.0725
      2 C5         75.3184   47.0183    7.7191 C.ar      1 MOL     0.0009
      3 C6         76.1195   46.9281    8.8577 C.ar      1 MOL     0.0187
      4 C7         77.7452   45.7045   10.2110 C.2       1 MOL    -0.0112
      5 C8         78.8302   46.5163   10.3650 C.2       1 MOL     0.0163
      6 C10        77.5463   44.8763   11.2526 C.2       1 MOL     0.0538
      7 N12        74.5822   46.0619    5.6664 N.ar      1 MOL    -0.2334
      8 C13        73.7933   47.1298    5.4217 C.ar      1 MOL     0.1153
      9 C15        74.5105   48.1345    7.5005 C.ar      1 MOL     0.0138
     10 C14        73.7357   48.1904    6.3355 C.ar      1 MOL     0.0445
     11 N16        73.0513   47.1608    4.3148 N.pl3     1 MOL    -0.3432
     12 C3         76.1458   44.8731    6.9851 C.ar      1 MOL     0.0295
     13 C2         76.9427   44.7796    8.1288 C.ar      1 MOL     0.0108
     14 C1         76.9251   45.7993    9.0815 C.ar      1 MOL    -0.0171
     15 C11        79.5684   46.3923   11.4792 C.2       1 MOL     0.0459
     16 S9         78.8054   45.1921   12.3611 S.3       1 MOL    -0.1054
     17 H161       72.8892   46.3122    3.7916 H         1 MOL     0.1442
     18 H162       72.6512   48.0328    3.9993 H         1 MOL     0.1442
@<TRIPOS>BOND
     1    2    1 ar
     2    1    7 ar
     3    1   12 ar
     4    3    2 ar
     5    2    9 ar
     6   14    3 ar
     7    4    5 1 
     8    4    6 2 
     9    4   14 1 
    10    5   15 2 
    11    6   16 1 
    12    7    8 ar
    13    8   10 ar
    14    8   11 1 
    15    9   10 ar
    16   12   13 ar
    17   13   14 ar
    18   15   16 1 
    19   17   11 1 
    20   18   11 1 
@<TRIPOS>SUBSTRUCTURE
1 MOL         1
@<TRIPOS>MOLECULE
query molecule
   18    20     1     0     0
SMALL
NO_CHARGE

@<TRIPOS>ATOM
      1 C4         66.9712   52.0565   13.6410 C.ar      1 MOL     0.0725
      2 C5         67.0305   53.0934   12.7064 C.ar      1 MOL     0.0009
      3 C6         67.6220   52.8715   11.4624 C.ar      1 MOL     0.0187
      4 C7         68.7596   51.3819    9.8945 C.2       1 MOL    -0.0112
      5 C8         70.1111   51.4394    9.7221 C.2       1 MOL     0.0163
      6 C10        68.0934   51.0359    8.7778 C.2       1 MOL     0.0538
      7 N12        66.3890   52.2440   14.8364 N.ar      1 MOL    -0.2334
      8 C13        65.8478   53.4332   15.1767 C.ar      1 MOL     0.1153
      9 C15        66.4859   54.3371   13.0270 C.ar      1 MOL     0.0138
     10 C14        65.8870   54.5098   14.2809 C.ar      1 MOL     0.0445
     11 N16        65.2942   53.5849   16.3796 N.pl3     1 MOL    -0.3432
     12 C3         67.5026   50.8078   13.3218 C.ar      1 MOL     0.0295
     13 C2         68.1010   50.5877   12.0788 C.ar      1 MOL     0.0108
     14 C1         68.1787   51.6216   11.1445 C.ar      1 MOL    -0.0171
     15 C11        70.6119   51.1808    8.5039 C.2       1 MOL     0.0459
     16 S9         69.2738   50.8301    7.5620 S.3       1 MOL    -0.1054
     17 H161       65.3980   52.8628   17.0781 H         1 MOL     0.1442
     18 H162       64.7708   54.4220   16.5926 H         1 MOL     0.1442
@<TRIPOS>BOND
     1    2    1 ar
     2    1    7 ar
     3    1   12 ar
     4    3    2 ar
     5    2    9 ar
     6   14    3 ar
     7    4    5 1 
     8    4    6 2 
     9    4   14 1 
    10    5   15 2 
    11    6   16 1 
    12    7    8 ar
    13    8   10 ar
    14    8   11 1 
    15    9   10 ar
    16   12   13 ar
    17   13   14 ar
    18   15   16 1 
    19   17   11 1 
    20   18   11 1 
@<TRIPOS>SUBSTRUCTURE
1 MOL         1
@<TRIPOS>MOLECULE
query molecule
   18    20     1     0     0
SMALL
NO_CHARGE

@<TRIPOS>ATOM
      1 C4         69.7198   49.9292    5.7058 C.ar      1 MOL     0.0725
      2 C5         71.0473   49.7604    6.1074 C.ar      1 MOL     0.0009
      3 C6         72.0641   49.7514    5.1521 C.ar      1 MOL     0.0187
      4 C7         72.7795   49.8986    2.8202 C.2       1 MOL    -0.0112
      5 C8         74.0707   49.6078    3.1488 C.2       1 MOL     0.0163
      6 C10        72.6035   50.1362    1.5076 C.2       1 MOL     0.0538
      7 N12        68.7286   49.9601    6.6112 N.ar      1 MOL    -0.2334
      8 C13        68.9773   49.8264    7.9314 C.ar      1 MOL     0.1153
      9 C15        71.3397   49.6138    7.4636 C.ar      1 MOL     0.0138
     10 C14        70.2892   49.6459    8.3889 C.ar      1 MOL     0.0445
     11 N16        67.9644   49.8450    8.7977 N.pl3     1 MOL    -0.3432
     12 C3         69.4224   50.0886    4.3531 C.ar      1 MOL     0.0295
     13 C2         70.4400   50.0726    3.3959 C.ar      1 MOL     0.0108
     14 C1         71.7674   49.8893    3.7861 C.ar      1 MOL    -0.0171
     15 C11        74.9950   49.6134    2.1755 C.2       1 MOL     0.0459
     16 S9         74.1430   49.9890    0.7849 S.3       1 MOL    -0.1054
     17 H161       67.6158   48.9802    9.1858 H         1 MOL     0.1442
     18 H162       67.5456   50.7241    9.0660 H         1 MOL     0.1442
@<TRIPOS>BOND
     1    2    1 ar
     2    1    7 ar
     3    1   12 ar
     4    3    2 ar
     5    2    9 ar
     6   14    3 ar
     7    4    5 1 
     8    4    6 2 
     9    4   14 1 
    10    5   15 2 
    11    6   16 1 
    12    7    8 ar
    13    8   10 ar
    14    8   11 1 
    15    9   10 ar
    16   12   13 ar
    17   13   14 ar
    18   15   16 1 
    19   17   11 1 
    20   18   11 1 
@<TRIPOS>SUBSTRUCTURE
1 MOL         1
@<TRIPOS>MOLECULE
query molecule
   18    20     1     0     0
SMALL
NO_CHARGE

@<TRIPOS>ATOM
      1 C4         73.3910   42.4830   20.7057 C.ar      1 MOL     0.0725
      2 C5         72.3119   43.3441   20.9196 C.ar      1 MOL     0.0009
      3 C6         72.5386   44.7108   21.0848 C.ar      1 MOL     0.0187
      4 C7         74.0821   46.6013   21.2074 C.2       1 MOL    -0.0112
      5 C8         75.3525   47.0946   21.2561 C.2       1 MOL     0.0163
      6 C10        73.1361   47.5562   21.2681 C.2       1 MOL     0.0538
      7 N12        73.1924   41.1673   20.5251 N.ar      1 MOL    -0.2334
      8 C13        71.9527   40.6333   20.5475 C.ar      1 MOL     0.1153
      9 C15        71.0173   42.8253   20.9541 C.ar      1 MOL     0.0138
     10 C14        70.8352   41.4496   20.7666 C.ar      1 MOL     0.0445
     11 N16        71.7980   39.3198   20.3814 N.pl3     1 MOL    -0.3432
     12 C3         74.6860   42.9972   20.6578 C.ar      1 MOL     0.0295
     13 C2         74.9135   44.3648   20.8301 C.ar      1 MOL     0.0108
     14 C1         73.8433   45.2307   21.0596 C.ar      1 MOL    -0.0171
     15 C11        75.5191   48.4208   21.3794 C.2       1 MOL     0.0459
     16 S9         73.9654   49.0416   21.4100 S.3       1 MOL    -0.1054
     17 H161       71.4780   38.7478   21.1498 H         1 MOL     0.1442
     18 H162       72.0010   38.8966   19.4872 H         1 MOL     0.1442
@<TRIPOS>BOND
     1    2    1 ar
     2    1    7 ar
     3    1   12 ar
     4    3    2 ar
     5    2    9 ar
     6   14    3 ar
     7    4    5 1 
     8    4    6 2 
     9    4   14 1 
    10    5   15 2 
    11    6   16 1 
    12    7    8 ar
    13    8   10 ar
    14    8   11 1 
    15    9   10 ar
    16   12   13 ar
    17   13   14 ar
    18   15   16 1 
    19   17   11 1 
    20   18   11 1 
@<TRIPOS>SUBSTRUCTURE
1 MOL         1
@<TRIPOS>MOLECULE
query molecule
   18    20     1     0     0
SMALL
NO_CHARGE

@<TRIPOS>ATOM
      1 C4         67.7983   50.5636    8.6570 C.ar      1 MOL     0.0725
      2 C5         68.2643   49.5178    9.4577 C.ar      1 MOL     0.0009
      3 C6         68.9577   49.8025   10.6344 C.ar      1 MOL     0.0187
      4 C7         69.8920   51.4291   12.2006 C.2       1 MOL    -0.0112
      5 C8         69.2196   51.6039   13.3741 C.2       1 MOL     0.0163
      6 C10        71.2275   51.5278   12.3310 C.2       1 MOL     0.0538
      7 N12        67.1120   50.3109    7.5307 N.ar      1 MOL    -0.2334
      8 C13        66.8532   49.0469    7.1331 C.ar      1 MOL     0.1153
      9 C15        68.0192   48.1991    9.0740 C.ar      1 MOL     0.0138
     10 C14        67.3044   47.9603    7.8938 C.ar      1 MOL     0.0445
     11 N16        66.1838   48.8369    5.9998 N.pl3     1 MOL    -0.3432
     12 C3         68.0293   51.8836    9.0415 C.ar      1 MOL     0.0295
     13 C2         68.7297   52.1686   10.2162 C.ar      1 MOL     0.0108
     14 C1         69.2123   51.1306   11.0147 C.ar      1 MOL    -0.0171
     15 C11        69.9275   51.8692   14.4832 C.2       1 MOL     0.0459
     16 S9         71.5227   51.8676   13.9776 S.3       1 MOL    -0.1054
     17 H161       65.7255   47.9511    5.8408 H         1 MOL     0.1442
     18 H162       66.1349   49.5636    5.3002 H         1 MOL     0.1442
@<TRIPOS>BOND
     1    2    1 ar
     2    1    7 ar
     3    1   12 ar
     4    3    2 ar
     5    2    9 ar
     6   14    3 ar
     7    4    5 1 
     8    4    6 2 
     9    4   14 1 
    10    5   15 2 
    11    6   16 1 
    12    7    8 ar
    13    8   10 ar
    14    8   11 1 
    15    9   10 ar
    16   12   13 ar
    17   13   14 ar
    18   15   16 1 
    19   17   11 1 
    20   18   11 1 
@<TRIPOS>SUBSTRUCTURE
1 MOL         1
@<TRIPOS>MOLECULE
query molecule
   18    20     1     0     0
SMALL
NO_CHARGE

@<TRIPOS>ATOM
      1 C4         74.5048   45.3242    7.2946 C.ar      1 MOL     0.0725
      2 C5         74.8052   44.1842    8.0443 C.ar      1 MOL     0.0009
      3 C6         75.9161   44.1831    8.8884 C.ar      1 MOL     0.0187
      4 C7         77.8579   45.3265    9.8336 C.2       1 MOL    -0.0112
      5 C8         78.6810   44.2448    9.9434 C.2       1 MOL     0.0163
      6 C10        78.2531   46.3755   10.5778 C.2       1 MOL     0.0538
      7 N12        73.4293   45.3522    6.4911 N.ar      1 MOL    -0.2334
      8 C13        72.6082   44.2866    6.3771 C.ar      1 MOL     0.1153
      9 C15        73.9810   43.0628    7.9467 C.ar      1 MOL     0.0138
     10 C14        72.8671   43.1144    7.0997 C.ar      1 MOL     0.0445
     11 N16        71.5603   44.3472    5.5557 N.pl3     1 MOL    -0.3432
     12 C3         75.3176   46.4523    7.3973 C.ar      1 MOL     0.0295
     13 C2         76.4339   46.4488    8.2373 C.ar      1 MOL     0.0108
     14 C1         76.7507   45.3094    8.9785 C.ar      1 MOL    -0.0171
     15 C11        79.7389   44.3272   10.7655 C.2       1 MOL     0.0459
     16 S9         79.6653   45.8756   11.3961 S.3       1 MOL    -0.1054
     17 H161       70.8495   43.6306    5.5902 H         1 MOL     0.1442
     18 H162       71.4771   45.1099    4.8988 H         1 MOL     0.1442
@<TRIPOS>BOND
     1    2    1 ar
     2    1    7 ar
     3    1   12 ar
     4    3    2 ar
     5    2    9 ar
     6   14    3 ar
     7    4    5 1 
     8    4    6 2 
     9    4   14 1 
    10    5   15 2 
    11    6   16 1 
    12    7    8 ar
    13    8   10 ar
    14    8   11 1 
    15    9   10 ar
    16   12   13 ar
    17   13   14 ar
    18   15   16 1 
    19   17   11 1 
    20   18   11 1 
@<TRIPOS>SUBSTRUCTURE
1 MOL         1
@<TRIPOS>MOLECULE
query molecule
   18    20     1     0     0
SMALL
NO_CHARGE

@<TRIPOS>ATOM
      1 C4         68.8859   47.6224    6.8659 C.ar      1 MOL     0.0725
      2 C5         69.7270   46.7695    7.5849 C.ar      1 MOL     0.0009
      3 C6         71.0854   47.0680    7.6956 C.ar      1 MOL     0.0187
      4 C7         72.9806   48.5260    7.1916 C.2       1 MOL    -0.0112
      5 C8         73.9367   47.5535    7.1860 C.2       1 MOL     0.0163
      6 C10        73.4858   49.7705    7.2721 C.2       1 MOL     0.0538
      7 N12        67.5722   47.3633    6.7639 N.ar      1 MOL    -0.2334
      8 C13        67.0225   46.2756    7.3448 C.ar      1 MOL     0.1153
      9 C15        69.1933   45.6334    8.1937 C.ar      1 MOL     0.0138
     10 C14        67.8212   45.3821    8.0706 C.ar      1 MOL     0.0445
     11 N16        65.7173   46.0436    7.2060 N.pl3     1 MOL    -0.3432
     12 C3         69.4111   48.7660    6.2658 C.ar      1 MOL     0.0295
     13 C2         70.7726   49.0611    6.3708 C.ar      1 MOL     0.0108
     14 C1         71.6235   48.2071    7.0741 C.ar      1 MOL    -0.0171
     15 C11        75.2239   47.9219    7.2824 C.2       1 MOL     0.0459
     16 S9         75.1812   49.5930    7.3603 S.3       1 MOL    -0.1054
     17 H161       65.3425   45.7906    6.3029 H         1 MOL     0.1442
     18 H162       65.1031   46.1207    8.0041 H         1 MOL     0.1442
@<TRIPOS>BOND
     1    2    1 ar
     2    1    7 ar
     3    1   12 ar
     4    3    2 ar
     5    2    9 ar
     6   14    3 ar
     7    4    5 1 
     8    4    6 2 
     9    4   14 1 
    10    5   15 2 
    11    6   16 1 
    12    7    8 ar
    13    8   10 ar
    14    8   11 1 
    15    9   10 ar
    16   12   13 ar
    17   13   14 ar
    18   15   16 1 
    19   17   11 1 
    20   18   11 1 
@<TRIPOS>SUBSTRUCTURE
1 MOL         1
@<TRIPOS>MOLECULE
query molecule
   18    20     1     0     0
SMALL
NO_CHARGE

@<TRIPOS>ATOM
      1 C4         67.4023   50.5498   10.2663 C.ar      1 MOL     0.0725
      2 C5         67.4097   49.9762    8.9923 C.ar      1 MOL     0.0009
      3 C6         66.5286   48.9357    8.6962 C.ar      1 MOL     0.0187
      4 C7         64.7467   47.4106    9.3817 C.2       1 MOL    -0.0112
      5 C8         63.4829   47.6787    8.9449 C.2       1 MOL     0.0163
      6 C10        65.0200   46.0948    9.4492 C.2       1 MOL     0.0538
      7 N12        68.2288   51.5649   10.5655 N.ar      1 MOL    -0.2334
      8 C13        69.0925   52.0611    9.6540 C.ar      1 MOL     0.1153
      9 C15        68.2932   50.4608    8.0275 C.ar      1 MOL     0.0138
     10 C14        69.1479   51.5177    8.3638 C.ar      1 MOL     0.0445
     11 N16        69.9091   53.0580    9.9947 N.pl3     1 MOL    -0.3432
     12 C3         66.5131   50.0782   11.2309 C.ar      1 MOL     0.0295
     13 C2         65.6357   49.0317   10.9364 C.ar      1 MOL     0.0108
     14 C1         65.6463   48.4421    9.6714 C.ar      1 MOL    -0.0171
     15 C11        62.6711   46.6473    8.6642 C.2       1 MOL     0.0459
     16 S9         63.5985   45.2861    8.9602 S.3       1 MOL    -0.1054
     17 H161       69.6936   54.0047    9.7167 H         1 MOL     0.1442
     18 H162       70.7433   52.8665   10.5308 H         1 MOL     0.1442
@<TRIPOS>BOND
     1    2    1 ar
     2    1    7 ar
     3    1   12 ar
     4    3    2 ar
     5    2    9 ar
     6   14    3 ar
     7    4    5 1 
     8    4    6 2 
     9    4   14 1 
    10    5   15 2 
    11    6   16 1 
    12    7    8 ar
    13    8   10 ar
    14    8   11 1 
    15    9   10 ar
    16   12   13 ar
    17   13   14 ar
    18   15   16 1 
    19   17   11 1 
    20   18   11 1 
@<TRIPOS>SUBSTRUCTURE
1 MOL         1
@<TRIPOS>MOLECULE
query molecule
   18    20     1     0     0
SMALL
NO_CHARGE

@<TRIPOS>ATOM
      1 C4         65.2105   48.2651    9.2718 C.ar      1 MOL     0.0725
      2 C5         64.8334   46.9608    9.6013 C.ar      1 MOL     0.0009
      3 C6         63.9524   46.7413   10.6607 C.ar      1 MOL     0.0187
      4 C7         62.5580   47.6103   12.4694 C.2       1 MOL    -0.0112
      5 C8         61.4193   46.8807   12.2942 C.2       1 MOL     0.0163
      6 C10        62.7247   48.0443   13.7322 C.2       1 MOL     0.0538
      7 N12        66.0420   48.4989    8.2436 N.ar      1 MOL    -0.2334
      8 C13        66.5424   47.4894    7.4998 C.ar      1 MOL     0.1153
      9 C15        65.3359   45.8932    8.8570 C.ar      1 MOL     0.0138
     10 C14        66.2041   46.1614    7.7916 C.ar      1 MOL     0.0445
     11 N16        67.3787   47.7611    6.4981 N.pl3     1 MOL    -0.3432
     12 C3         64.7019   49.3370   10.0040 C.ar      1 MOL     0.0295
     13 C2         63.8252   49.1166   11.0692 C.ar      1 MOL     0.0108
     14 C1         63.4548   47.8163   11.4155 C.ar      1 MOL    -0.0171
     15 C11        60.6068   46.7007   13.3474 C.2       1 MOL     0.0459
     16 S9         61.3687   47.4921   14.6098 S.3       1 MOL    -0.1054
     17 H161       67.6682   47.0263    5.8686 H         1 MOL     0.1442
     18 H162       67.7228   48.7017    6.3686 H         1 MOL     0.1442
@<TRIPOS>BOND
     1    2    1 ar
     2    1    7 ar
     3    1   12 ar
     4    3    2 ar
     5    2    9 ar
     6   14    3 ar
     7    4    5 1 
     8    4    6 2 
     9    4   14 1 
    10    5   15 2 
    11    6   16 1 
    12    7    8 ar
    13    8   10 ar
    14    8   11 1 
    15    9   10 ar
    16   12   13 ar
    17   13   14 ar
    18   15   16 1 
    19   17   11 1 
    20   18   11 1 
@<TRIPOS>SUBSTRUCTURE
1 MOL         1
@<TRIPOS>MOLECULE
query molecule
   18    20     1     0     0
SMALL
NO_CHARGE

@<TRIPOS>ATOM
      1 C4         70.7233   51.0932   11.4647 C.ar      1 MOL     0.0725
      2 C5         70.8521   49.7229   11.2250 C.ar      1 MOL     0.0009
      3 C6         70.1421   49.1330   10.1788 C.ar      1 MOL     0.0187
      4 C7         68.5766   49.3209    8.3119 C.2       1 MOL    -0.0112
      5 C8         67.4153   48.6381    8.5237 C.2       1 MOL     0.0163
      6 C10        68.9162   49.4062    7.0127 C.2       1 MOL     0.0538
      7 N12        71.4127   51.6836   12.4543 N.ar      1 MOL    -0.2334
      8 C13        72.2457   50.9786   13.2493 C.ar      1 MOL     0.1153
      9 C15        71.7002   48.9628   12.0308 C.ar      1 MOL     0.0138
     10 C14        72.4062   49.5998   13.0588 C.ar      1 MOL     0.0445
     11 N16        72.8994   51.5976   14.2321 N.pl3     1 MOL    -0.3432
     12 C3         69.8868   51.8604   10.6551 C.ar      1 MOL     0.0295
     13 C2         69.1706   51.2684    9.6118 C.ar      1 MOL     0.0108
     14 C1         69.2811   49.8975    9.3743 C.ar      1 MOL    -0.0171
     15 C11        66.7736   48.1236    7.4630 C.2       1 MOL     0.0459
     16 S9         67.7079   48.5666    6.1472 S.3       1 MOL    -0.1054
     17 H161       73.2133   51.0751   15.0374 H         1 MOL     0.1442
     18 H162       73.0808   52.5894   14.1716 H         1 MOL     0.1442
@<TRIPOS>BOND
     1    2    1 ar
     2    1    7 ar
     3    1   12 ar
     4    3    2 ar
     5    2    9 ar
     6   14    3 ar
     7    4    5 1 
     8    4    6 2 
     9    4   14 1 
    10    5   15 2 
    11    6   16 1 
    12    7    8 ar
    13    8   10 ar
    14    8   11 1 
    15    9   10 ar
    16   12   13 ar
    17   13   14 ar
    18   15   16 1 
    19   17   11 1 
    20   18   11 1 
@<TRIPOS>SUBSTRUCTURE
1 MOL         1
@<TRIPOS>MOLECULE
query molecule
   18    20     1     0     0
SMALL
NO_CHARGE

@<TRIPOS>ATOM
      1 C4         68.5014   50.4821    8.9418 C.ar      1 MOL     0.0725
      2 C5         68.9663   49.2972    9.5180 C.ar      1 MOL     0.0009
      3 C6         69.8297   49.3515   10.6125 C.ar      1 MOL     0.0187
      4 C7         71.1078   50.6532   12.2384 C.2       1 MOL    -0.0112
      5 C8         70.7925   51.4135   13.3257 C.2       1 MOL     0.0163
      6 C10        72.2605   49.9735   12.3786 C.2       1 MOL     0.0538
      7 N12        67.6546   50.4513    7.9001 N.ar      1 MOL    -0.2334
      8 C13        67.2285   49.2833    7.3740 C.ar      1 MOL     0.1153
      9 C15        68.5504   48.0721    8.9961 C.ar      1 MOL     0.0138
     10 C14        67.6698   48.0651    7.9074 C.ar      1 MOL     0.0445
     11 N16        66.4014   49.2943    6.3289 N.pl3     1 MOL    -0.3432
     12 C3         68.9036   51.7095    9.4667 C.ar      1 MOL     0.0295
     13 C2         69.7737   51.7638   10.5584 C.ar      1 MOL     0.0108
     14 C1         70.2554   50.5857   11.1310 C.ar      1 MOL    -0.0171
     15 C11        71.6402   51.4235   14.3664 C.2       1 MOL     0.0459
     16 S9         72.8758   50.3887   13.9158 S.3       1 MOL    -0.1054
     17 H161       65.4188   49.4844    6.4644 H         1 MOL     0.1442
     18 H162       66.7574   49.1127    5.4013 H         1 MOL     0.1442
@<TRIPOS>BOND
     1    2    1 ar
     2    1    7 ar
     3    1   12 ar
     4    3    2 ar
     5    2    9 ar
     6   14    3 ar
     7    4    5 1 
     8    4    6 2 
     9    4   14 1 
    10    5   15 2 
    11    6   16 1 
    12    7    8 ar
    13    8   10 ar
    14    8   11 1 
    15    9   10 ar
    16   12   13 ar
    17   13   14 ar
    18   15   16 1 
    19   17   11 1 
    20   18   11 1 
@<TRIPOS>SUBSTRUCTURE
1 MOL         1
@<TRIPOS>MOLECULE
query molecule
   18    20     1     0     0
SMALL
NO_CHARGE

@<TRIPOS>ATOM
      1 C4         76.9011   45.0361    9.4293 C.ar      1 MOL     0.0725
      2 C5         77.2177   46.1329   10.2347 C.ar      1 MOL     0.0009
      3 C6         76.2362   47.0779   10.5350 C.ar      1 MOL     0.0187
      4 C7         73.9385   47.8834   10.3270 C.2       1 MOL    -0.0112
      5 C8         73.3936   48.6777    9.3617 C.2       1 MOL     0.0163
      6 C10        73.3896   48.0668   11.5417 C.2       1 MOL     0.0538
      7 N12        77.8261   44.1053    9.1444 N.ar      1 MOL    -0.2334
      8 C13        79.0866   44.1976    9.6194 C.ar      1 MOL     0.1153
      9 C15        78.5123   46.2626   10.7382 C.ar      1 MOL     0.0138
     10 C14        79.4608   45.2813   10.4248 C.ar      1 MOL     0.0445
     11 N16        79.9810   43.2625    9.3000 N.pl3     1 MOL    -0.3432
     12 C3         75.6058   44.8944    8.9333 C.ar      1 MOL     0.0295
     13 C2         74.6249   45.8444    9.2284 C.ar      1 MOL     0.0108
     14 C1         74.9357   46.9514   10.0195 C.ar      1 MOL    -0.0171
     15 C11        72.4265   49.5395    9.7135 C.2       1 MOL     0.0459
     16 S9         72.2094   49.2856   11.3533 S.3       1 MOL    -0.1054
     17 H161       79.9541   42.3614    9.7554 H         1 MOL     0.1442
     18 H162       80.6856   43.4549    8.6025 H         1 MOL     0.1442
@<TRIPOS>BOND
     1    2    1 ar
     2    1    7 ar
     3    1   12 ar
     4    3    2 ar
     5    2    9 ar
     6   14    3 ar
     7    4    5 1 
     8    4    6 2 
     9    4   14 1 
    10    5   15 2 
    11    6   16 1 
    12    7    8 ar
    13    8   10 ar
    14    8   11 1 
    15    9   10 ar
    16   12   13 ar
    17   13   14 ar
    18   15   16 1 
    19   17   11 1 
    20   18   11 1 
@<TRIPOS>SUBSTRUCTURE
1 MOL         1
@<TRIPOS>MOLECULE
query molecule
   18    20     1     0     0
SMALL
NO_CHARGE

@<TRIPOS>ATOM
      1 C4         69.7455   50.1644    4.6340 C.ar      1 MOL     0.0725
      2 C5         71.1350   50.2162    4.4972 C.ar      1 MOL     0.0009
      3 C6         71.9463   50.1195    5.6281 C.ar      1 MOL     0.0187
      4 C7         72.1854   49.8768    8.0479 C.2       1 MOL    -0.0112
      5 C8         71.8097   49.0944    9.0997 C.2       1 MOL     0.0163
      6 C10        73.3877   50.4569    8.2168 C.2       1 MOL     0.0538
      7 N12        68.9477   50.2362    3.5563 N.ar      1 MOL    -0.2334
      8 C13        69.4558   50.3640    2.3121 C.ar      1 MOL     0.1153
      9 C15        71.6939   50.3532    3.2264 C.ar      1 MOL     0.0138
     10 C14        70.8418   50.4296    2.1178 C.ar      1 MOL     0.0445
     11 N16        68.6303   50.4495    1.2690 N.pl3     1 MOL    -0.3432
     12 C3         69.1813   50.0151    5.9002 C.ar      1 MOL     0.0295
     13 C2         69.9937   49.9252    7.0332 C.ar      1 MOL     0.0108
     14 C1         71.3821   49.9914    6.9081 C.ar      1 MOL    -0.0171
     15 C11        72.6310   49.0084   10.1579 C.2       1 MOL     0.0459
     16 S9         73.9444   49.9632    9.7531 S.3       1 MOL    -0.1054
     17 H161       68.5113   51.3307    0.7901 H         1 MOL     0.1442
     18 H162       68.1239   49.6330    0.9576 H         1 MOL     0.1442
@<TRIPOS>BOND
     1    2    1 ar
     2    1    7 ar
     3    1   12 ar
     4    3    2 ar
     5    2    9 ar
     6   14    3 ar
     7    4    5 1 
     8    4    6 2 
     9    4   14 1 
    10    5   15 2 
    11    6   16 1 
    12    7    8 ar
    13    8   10 ar
    14    8   11 1 
    15    9   10 ar
    16   12   13 ar
    17   13   14 ar
    18   15   16 1 
    19   17   11 1 
    20   18   11 1 
@<TRIPOS>SUBSTRUCTURE
1 MOL         1
