@<TRIPOS>MOLECULE
query molecule
   18    20     1     0     0
SMALL
NO_CHARGE

@<TRIPOS>ATOM
      1 C4         77.8925   46.5792   10.5015 C.ar      1 MOL     0.0725
      2 C5         78.6627   45.6234    9.8343 C.ar      1 MOL     0.0009
      3 C6         78.0989   44.8814    8.7960 C.ar      1 MOL     0.0187
      4 C7         76.1849   44.3428    7.3754 C.2       1 MOL    -0.0112
      5 C8         75.7907   44.9592    6.2245 C.2       1 MOL     0.0163
      6 C10        76.0071   43.0093    7.3544 C.2       1 MOL     0.0538
      7 N12        78.4221   47.3172   11.4905 N.ar      1 MOL    -0.2334
      8 C13        79.7067   47.1604   11.8749 C.ar      1 MOL     0.1153
      9 C15        79.9927   45.4313   10.2093 C.ar      1 MOL     0.0138
     10 C14        80.5219   46.2103   11.2456 C.ar      1 MOL     0.0445
     11 N16        80.1908   47.9000   12.8725 N.pl3     1 MOL    -0.3432
     12 C3         76.5665   46.7844   10.1230 C.ar      1 MOL     0.0295
     13 C2         75.9999   46.0365    9.0879 C.ar      1 MOL     0.0108
     14 C1         76.7569   45.0688    8.4257 C.ar      1 MOL    -0.0171
     15 C11        75.2664   44.2074    5.2439 C.2       1 MOL     0.0459
     16 S9         75.3118   42.6439    5.8389 S.3       1 MOL    -0.1054
     17 H161       80.2509   48.9034   12.7741 H         1 MOL     0.1442
     18 H162       80.4974   47.4571   13.7268 H         1 MOL     0.1442
@<TRIPOS>BOND
     1    2    1 ar
     2    1    7 ar
     3    1   12 ar
     4    3    2 ar
     5    2    9 ar
     6   14    3 ar
     7    4    5 1 
     8    4    6 2 
     9    4   14 1 
    10    5   15 2 
    11    6   16 1 
    12    7    8 ar
    13    8   10 ar
    14    8   11 1 
    15    9   10 ar
    16   12   13 ar
    17   13   14 ar
    18   15   16 1 
    19   17   11 1 
    20   18   11 1 
@<TRIPOS>SUBSTRUCTURE
1 MOL         1
@<TRIPOS>MOLECULE
query molecule
   18    20     1     0     0
SMALL
NO_CHARGE

@<TRIPOS>ATOM
      1 C4         73.1442   43.5525    7.8093 C.ar      1 MOL     0.0725
      2 C5         73.4306   43.4497    6.4457 C.ar      1 MOL     0.0009
      3 C6         74.7551   43.5014    6.0104 C.ar      1 MOL     0.0187
      4 C7         77.1390   43.7139    6.5037 C.2       1 MOL    -0.0112
      5 C8         77.6387   42.7644    5.6620 C.2       1 MOL     0.0163
      6 C10        78.0323   44.6687    6.8216 C.2       1 MOL     0.0538
      7 N12        71.8776   43.4855    8.2504 N.ar      1 MOL    -0.2334
      8 C13        70.8435   43.3216    7.3981 C.ar      1 MOL     0.1153
      9 C15        72.3856   43.2849    5.5363 C.ar      1 MOL     0.0138
     10 C14        71.0728   43.2213    6.0195 C.ar      1 MOL     0.0445
     11 N16        69.5989   43.2772    7.8731 N.pl3     1 MOL    -0.3432
     12 C3         74.1851   43.7047    8.7241 C.ar      1 MOL     0.0295
     13 C2         75.5109   43.7636    8.2875 C.ar      1 MOL     0.0108
     14 C1         75.8058   43.6771    6.9261 C.ar      1 MOL    -0.0171
     15 C11        78.9204   42.8631    5.2757 C.2       1 MOL     0.0459
     16 S9         79.4808   44.2535    6.0194 S.3       1 MOL    -0.1054
     17 H161       69.2966   43.9522    8.5610 H         1 MOL     0.1442
     18 H162       68.9582   42.5687    7.5453 H         1 MOL     0.1442
@<TRIPOS>BOND
     1    2    1 ar
     2    1    7 ar
     3    1   12 ar
     4    3    2 ar
     5    2    9 ar
     6   14    3 ar
     7    4    5 1 
     8    4    6 2 
     9    4   14 1 
    10    5   15 2 
    11    6   16 1 
    12    7    8 ar
    13    8   10 ar
    14    8   11 1 
    15    9   10 ar
    16   12   13 ar
    17   13   14 ar
    18   15   16 1 
    19   17   11 1 
    20   18   11 1 
@<TRIPOS>SUBSTRUCTURE
1 MOL         1
@<TRIPOS>MOLECULE
query molecule
   18    20     1     0     0
SMALL
NO_CHARGE

@<TRIPOS>ATOM
      1 C4         72.4053   40.9242   20.3012 C.ar      1 MOL     0.0725
      2 C5         71.7512   41.0320   19.0713 C.ar      1 MOL     0.0009
      3 C6         70.4139   40.6494   18.9622 C.ar      1 MOL     0.0187
      4 C7         68.3752   39.7648   19.9784 C.2       1 MOL    -0.0112
      5 C8         67.4197   40.3821   20.7305 C.2       1 MOL     0.0163
      6 C10        67.8783   38.8337   19.1437 C.2       1 MOL     0.0538
      7 N12        73.6863   41.3052   20.4317 N.ar      1 MOL    -0.2334
      8 C13        74.3836   41.7986   19.3862 C.ar      1 MOL     0.1153
      9 C15        72.4433   41.5328   17.9684 C.ar      1 MOL     0.0138
     10 C14        73.7794   41.9205   18.1279 C.ar      1 MOL     0.0445
     11 N16        75.6587   42.1497   19.5517 N.pl3     1 MOL    -0.3432
     12 C3         71.7153   40.4361   21.4100 C.ar      1 MOL     0.0295
     13 C2         70.3783   40.0465   21.2990 C.ar      1 MOL     0.0108
     14 C1         69.7209   40.1362   20.0711 C.ar      1 MOL    -0.0171
     15 C11        66.1425   39.9960   20.5840 C.2       1 MOL     0.0459
     16 S9         66.1925   38.8044   19.4102 S.3       1 MOL    -0.1054
     17 H161       76.2661   41.5880   20.1311 H         1 MOL     0.1442
     18 H162       76.0176   42.9775   19.0978 H         1 MOL     0.1442
@<TRIPOS>BOND
     1    2    1 ar
     2    1    7 ar
     3    1   12 ar
     4    3    2 ar
     5    2    9 ar
     6   14    3 ar
     7    4    5 1 
     8    4    6 2 
     9    4   14 1 
    10    5   15 2 
    11    6   16 1 
    12    7    8 ar
    13    8   10 ar
    14    8   11 1 
    15    9   10 ar
    16   12   13 ar
    17   13   14 ar
    18   15   16 1 
    19   17   11 1 
    20   18   11 1 
@<TRIPOS>SUBSTRUCTURE
1 MOL         1
@<TRIPOS>MOLECULE
query molecule
   18    20     1     0     0
SMALL
NO_CHARGE

@<TRIPOS>ATOM
      1 C4         61.8612   46.1584   13.6534 C.ar      1 MOL     0.0725
      2 C5         60.9446   46.1101   12.6001 C.ar      1 MOL     0.0009
      3 C6         61.3892   46.2681   11.2872 C.ar      1 MOL     0.0187
      4 C7         63.2081   46.6399    9.6982 C.2       1 MOL    -0.0112
      5 C8         63.2320   45.5808    8.8395 C.2       1 MOL     0.0163
      6 C10        63.6176   47.7919    9.1361 C.2       1 MOL     0.0538
      7 N12        61.4563   45.9894   14.9225 N.ar      1 MOL    -0.2334
      8 C13        60.1583   45.7722   15.2239 C.ar      1 MOL     0.1153
      9 C15        59.5944   45.8928   12.8759 C.ar      1 MOL     0.0138
     10 C14        59.1954   45.7227   14.2073 C.ar      1 MOL     0.0445
     11 N16        59.7933   45.6265   16.4975 N.pl3     1 MOL    -0.3432
     12 C3         63.2136   46.3629   13.3832 C.ar      1 MOL     0.0295
     13 C2         63.6578   46.5280   12.0689 C.ar      1 MOL     0.0108
     14 C1         62.7475   46.4966   11.0115 C.ar      1 MOL    -0.0171
     15 C11        63.6662   45.7838    7.5857 C.2       1 MOL     0.0459
     16 S9         64.0329   47.4154    7.5238 S.3       1 MOL    -0.1054
     17 H161       60.0675   46.3152   17.1835 H         1 MOL     0.1442
     18 H162       59.2423   44.8274   16.7767 H         1 MOL     0.1442
@<TRIPOS>BOND
     1    2    1 ar
     2    1    7 ar
     3    1   12 ar
     4    3    2 ar
     5    2    9 ar
     6   14    3 ar
     7    4    5 1 
     8    4    6 2 
     9    4   14 1 
    10    5   15 2 
    11    6   16 1 
    12    7    8 ar
    13    8   10 ar
    14    8   11 1 
    15    9   10 ar
    16   12   13 ar
    17   13   14 ar
    18   15   16 1 
    19   17   11 1 
    20   18   11 1 
@<TRIPOS>SUBSTRUCTURE
1 MOL         1
@<TRIPOS>MOLECULE
query molecule
   18    20     1     0     0
SMALL
NO_CHARGE

@<TRIPOS>ATOM
      1 C4         63.6406   45.1706   15.0965 C.ar      1 MOL     0.0725
      2 C5         63.3582   45.5179   16.4200 C.ar      1 MOL     0.0009
      3 C6         63.6399   44.6173   17.4476 C.ar      1 MOL     0.0187
      4 C7         64.4881   42.4488   18.1889 C.2       1 MOL    -0.0112
      5 C8         65.1829   41.3033   17.9346 C.2       1 MOL     0.0163
      6 C10        64.1874   42.6127   19.4902 C.2       1 MOL     0.0538
      7 N12        63.3950   46.0308   14.0950 N.ar      1 MOL    -0.2334
      8 C13        62.8668   47.2510   14.3292 C.ar      1 MOL     0.1153
      9 C15        62.8069   46.7691   16.6976 C.ar      1 MOL     0.0138
     10 C14        62.5564   47.6478   15.6366 C.ar      1 MOL     0.0445
     11 N16        62.6214   48.0699   13.3065 N.pl3     1 MOL    -0.3432
     12 C3         64.2031   43.9267   14.8139 C.ar      1 MOL     0.0295
     13 C2         64.4786   43.0221   15.8423 C.ar      1 MOL     0.0108
     14 C1         64.1859   43.3541   17.1659 C.ar      1 MOL    -0.0171
     15 C11        65.4603   40.4826   18.9599 C.2       1 MOL     0.0459
     16 S9         64.8107   41.2456   20.3003 S.3       1 MOL    -0.1054
     17 H161       62.9847   47.8548   12.3889 H         1 MOL     0.1442
     18 H162       62.0722   48.9054   13.4491 H         1 MOL     0.1442
@<TRIPOS>BOND
     1    2    1 ar
     2    1    7 ar
     3    1   12 ar
     4    3    2 ar
     5    2    9 ar
     6   14    3 ar
     7    4    5 1 
     8    4    6 2 
     9    4   14 1 
    10    5   15 2 
    11    6   16 1 
    12    7    8 ar
    13    8   10 ar
    14    8   11 1 
    15    9   10 ar
    16   12   13 ar
    17   13   14 ar
    18   15   16 1 
    19   17   11 1 
    20   18   11 1 
@<TRIPOS>SUBSTRUCTURE
1 MOL         1
@<TRIPOS>MOLECULE
query molecule
   18    20     1     0     0
SMALL
NO_CHARGE

@<TRIPOS>ATOM
      1 C4         69.3821   51.3550   13.5286 C.ar      1 MOL     0.0725
      2 C5         68.9840   50.8483   12.2890 C.ar      1 MOL     0.0009
      3 C6         69.9440   50.3782   11.3923 C.ar      1 MOL     0.0187
      4 C7         72.2816   49.9436   10.8286 C.2       1 MOL    -0.0112
      5 C8         73.3555   49.2344   11.2797 C.2       1 MOL     0.0163
      6 C10        72.2509   50.0713    9.4894 C.2       1 MOL     0.0538
      7 N12        68.4726   51.7944   14.4134 N.ar      1 MOL    -0.2334
      8 C13        67.1514   51.7660   14.1371 C.ar      1 MOL     0.1153
      9 C15        67.6269   50.8091   11.9683 C.ar      1 MOL     0.0138
     10 C14        66.6971   51.2760   12.9056 C.ar      1 MOL     0.0445
     11 N16        66.2807   52.2274   15.0347 N.pl3     1 MOL    -0.3432
     12 C3         70.7361   51.3854   13.8598 C.ar      1 MOL     0.0295
     13 C2         71.6977   50.9210   12.9591 C.ar      1 MOL     0.0108
     14 C1         71.3108   50.4272   11.7123 C.ar      1 MOL    -0.0171
     15 C11        74.2439   48.7793   10.3822 C.2       1 MOL     0.0459
     16 S9         73.6425   49.2763    8.9018 S.3       1 MOL    -0.1054
     17 H161       66.5245   52.2400   16.0147 H         1 MOL     0.1442
     18 H162       65.3770   52.5644   14.7348 H         1 MOL     0.1442
@<TRIPOS>BOND
     1    2    1 ar
     2    1    7 ar
     3    1   12 ar
     4    3    2 ar
     5    2    9 ar
     6   14    3 ar
     7    4    5 1 
     8    4    6 2 
     9    4   14 1 
    10    5   15 2 
    11    6   16 1 
    12    7    8 ar
    13    8   10 ar
    14    8   11 1 
    15    9   10 ar
    16   12   13 ar
    17   13   14 ar
    18   15   16 1 
    19   17   11 1 
    20   18   11 1 
@<TRIPOS>SUBSTRUCTURE
1 MOL         1
@<TRIPOS>MOLECULE
query molecule
   18    20     1     0     0
SMALL
NO_CHARGE

@<TRIPOS>ATOM
      1 C4         76.4938   41.3058    8.8608 C.ar      1 MOL     0.0725
      2 C5         76.8942   42.2211    7.8842 C.ar      1 MOL     0.0009
      3 C6         75.9778   43.1476    7.3859 C.ar      1 MOL     0.0187
      4 C7         73.7247   44.0932    7.3600 C.2       1 MOL    -0.0112
      5 C8         72.7669   43.7385    6.4563 C.2       1 MOL     0.0163
      6 C10        73.6423   45.3790    7.7479 C.2       1 MOL     0.0538
      7 N12        77.3655   40.4188    9.3673 N.ar      1 MOL    -0.2334
      8 C13        78.6492   40.3776    8.9511 C.ar      1 MOL     0.1153
      9 C15        78.2123   42.2031    7.4272 C.ar      1 MOL     0.0138
     10 C14        79.1023   41.2668    7.9676 C.ar      1 MOL     0.0445
     11 N16        79.4797   39.4709    9.4655 N.pl3     1 MOL    -0.3432
     12 C3         75.1813   41.3270    9.3305 C.ar      1 MOL     0.0295
     13 C2         74.2618   42.2503    8.8265 C.ar      1 MOL     0.0108
     14 C1         74.6485   43.1584    7.8397 C.ar      1 MOL    -0.0171
     15 C11        71.8960   44.6744    6.0473 C.2       1 MOL     0.0459
     16 S9         72.3311   46.0541    6.8884 S.3       1 MOL    -0.1054
     17 H161       80.4540   39.4699    9.1994 H         1 MOL     0.1442
     18 H162       79.1348   38.7848   10.1215 H         1 MOL     0.1442
@<TRIPOS>BOND
     1    2    1 ar
     2    1    7 ar
     3    1   12 ar
     4    3    2 ar
     5    2    9 ar
     6   14    3 ar
     7    4    5 1 
     8    4    6 2 
     9    4   14 1 
    10    5   15 2 
    11    6   16 1 
    12    7    8 ar
    13    8   10 ar
    14    8   11 1 
    15    9   10 ar
    16   12   13 ar
    17   13   14 ar
    18   15   16 1 
    19   17   11 1 
    20   18   11 1 
@<TRIPOS>SUBSTRUCTURE
1 MOL         1
@<TRIPOS>MOLECULE
query molecule
   18    20     1     0     0
SMALL
NO_CHARGE

@<TRIPOS>ATOM
      1 C4         60.5748   51.2359   12.9971 C.ar      1 MOL     0.0725
      2 C5         61.6519   50.6325   12.3432 C.ar      1 MOL     0.0009
      3 C6         62.3582   51.3423   11.3717 C.ar      1 MOL     0.0187
      4 C7         62.6966   53.3802   10.0663 C.2       1 MOL    -0.0112
      5 C8         62.0507   54.1512    9.1455 C.2       1 MOL     0.0163
      6 C10        64.0372   53.4432    9.9690 C.2       1 MOL     0.0538
      7 N12        59.8943   50.5766   13.9487 N.ar      1 MOL    -0.2334
      8 C13        60.2219   49.3155   14.3020 C.ar      1 MOL     0.1153
      9 C15        62.0145   49.3280   12.6797 C.ar      1 MOL     0.0138
     10 C14        61.2880   48.6594   13.6727 C.ar      1 MOL     0.0445
     11 N16        59.5112   48.6882   15.2391 N.pl3     1 MOL    -0.3432
     12 C3         60.2154   52.5436   12.6740 C.ar      1 MOL     0.0295
     13 C2         60.9183   53.2520   11.6963 C.ar      1 MOL     0.0108
     14 C1         61.9861   52.6522   11.0268 C.ar      1 MOL    -0.0171
     15 C11        62.7867   54.8424    8.2611 C.2       1 MOL     0.0459
     16 S9         64.3725   54.4890    8.6622 S.3       1 MOL    -0.1054
     17 H161       58.5713   48.9930   15.4486 H         1 MOL     0.1442
     18 H162       59.9125   47.9081   15.7396 H         1 MOL     0.1442
@<TRIPOS>BOND
     1    2    1 ar
     2    1    7 ar
     3    1   12 ar
     4    3    2 ar
     5    2    9 ar
     6   14    3 ar
     7    4    5 1 
     8    4    6 2 
     9    4   14 1 
    10    5   15 2 
    11    6   16 1 
    12    7    8 ar
    13    8   10 ar
    14    8   11 1 
    15    9   10 ar
    16   12   13 ar
    17   13   14 ar
    18   15   16 1 
    19   17   11 1 
    20   18   11 1 
@<TRIPOS>SUBSTRUCTURE
1 MOL         1
@<TRIPOS>MOLECULE
query molecule
   18    20     1     0     0
SMALL
NO_CHARGE

@<TRIPOS>ATOM
      1 C4         78.6021   46.2722    9.3191 C.ar      1 MOL     0.0725
      2 C5         79.9735   46.2730    9.5856 C.ar      1 MOL     0.0009
      3 C6         80.4501   46.8523   10.7620 C.ar      1 MOL     0.0187
      4 C7         80.0323   48.0244   12.8651 C.2       1 MOL    -0.0112
      5 C8         80.2601   47.2594   13.9708 C.2       1 MOL     0.0163
      6 C10        80.3403   49.3223   13.0414 C.2       1 MOL     0.0538
      7 N12        78.1214   45.7028    8.2020 N.ar      1 MOL    -0.2334
      8 C13        78.9405   45.1186    7.3017 C.ar      1 MOL     0.1153
      9 C15        80.8493   45.6828    8.6741 C.ar      1 MOL     0.0138
     10 C14        80.3252   45.0982    7.5146 C.ar      1 MOL     0.0445
     11 N16        78.4267   44.5793    6.1963 N.pl3     1 MOL    -0.3432
     12 C3         77.7207   46.8496   10.2321 C.ar      1 MOL     0.0295
     13 C2         78.1987   47.4358   11.4067 C.ar      1 MOL     0.0108
     14 C1         79.5683   47.4550   11.6743 C.ar      1 MOL    -0.0171
     15 C11        80.7237   47.8590   15.0786 C.2       1 MOL     0.0459
     16 S9         80.8869   49.4689   14.6519 S.3       1 MOL    -0.1054
     17 H161       78.1958   45.1669    5.4080 H         1 MOL     0.1442
     18 H162       78.2682   43.5830    6.1471 H         1 MOL     0.1442
@<TRIPOS>BOND
     1    2    1 ar
     2    1    7 ar
     3    1   12 ar
     4    3    2 ar
     5    2    9 ar
     6   14    3 ar
     7    4    5 1 
     8    4    6 2 
     9    4   14 1 
    10    5   15 2 
    11    6   16 1 
    12    7    8 ar
    13    8   10 ar
    14    8   11 1 
    15    9   10 ar
    16   12   13 ar
    17   13   14 ar
    18   15   16 1 
    19   17   11 1 
    20   18   11 1 
@<TRIPOS>SUBSTRUCTURE
1 MOL         1
@<TRIPOS>MOLECULE
query molecule
   18    20     1     0     0
SMALL
NO_CHARGE

@<TRIPOS>ATOM
      1 C4         72.3691   49.5202   12.4838 C.ar      1 MOL     0.0725
      2 C5         71.8471   50.2255   11.3965 C.ar      1 MOL     0.0009
      3 C6         72.1338   49.8065   10.0970 C.ar      1 MOL     0.0187
      4 C7         73.2413   48.2541    8.5689 C.2       1 MOL    -0.0112
      5 C8         72.9176   49.0113    7.4819 C.2       1 MOL     0.0163
      6 C10        73.8764   47.1107    8.2528 C.2       1 MOL     0.0538
      7 N12        72.0892   49.8957   13.7423 N.ar      1 MOL    -0.2334
      8 C13        71.3025   50.9623   13.9998 C.ar      1 MOL     0.1153
      9 C15        71.0346   51.3361   11.6262 C.ar      1 MOL     0.0138
     10 C14        70.7594   51.7106   12.9472 C.ar      1 MOL     0.0445
     11 N16        71.0621   51.3138   15.2628 N.pl3     1 MOL    -0.3432
     12 C3         73.1716   48.4022   12.2607 C.ar      1 MOL     0.0295
     13 C2         73.4643   47.9868   10.9594 C.ar      1 MOL     0.0108
     14 C1         72.9600   48.6940    9.8669 C.ar      1 MOL    -0.0171
     15 C11        73.2301   48.5457    6.2624 C.2       1 MOL     0.0459
     16 S9         73.9904   47.0829    6.5499 S.3       1 MOL    -0.1054
     17 H161       71.4775   52.1531   15.6413 H         1 MOL     0.1442
     18 H162       70.4645   50.7410   15.8415 H         1 MOL     0.1442
@<TRIPOS>BOND
     1    2    1 ar
     2    1    7 ar
     3    1   12 ar
     4    3    2 ar
     5    2    9 ar
     6   14    3 ar
     7    4    5 1 
     8    4    6 2 
     9    4   14 1 
    10    5   15 2 
    11    6   16 1 
    12    7    8 ar
    13    8   10 ar
    14    8   11 1 
    15    9   10 ar
    16   12   13 ar
    17   13   14 ar
    18   15   16 1 
    19   17   11 1 
    20   18   11 1 
@<TRIPOS>SUBSTRUCTURE
1 MOL         1
@<TRIPOS>MOLECULE
query molecule
   18    20     1     0     0
SMALL
NO_CHARGE

@<TRIPOS>ATOM
      1 C4         62.0448   54.1509    7.8625 C.ar      1 MOL     0.0725
      2 C5         62.6920   53.1306    8.5639 C.ar      1 MOL     0.0009
      3 C6         63.5175   53.4478    9.6430 C.ar      1 MOL     0.0187
      4 C7         64.5355   55.1147   11.1116 C.2       1 MOL    -0.0112
      5 C8         65.7997   55.5931   10.9304 C.2       1 MOL     0.0163
      6 C10        64.1702   55.0488   12.4049 C.2       1 MOL     0.0538
      7 N12        61.2309   53.8654    6.8333 N.ar      1 MOL    -0.2334
      8 C13        61.0138   52.5921    6.4403 C.ar      1 MOL     0.1153
      9 C15        62.4945   51.8036    8.1813 C.ar      1 MOL     0.0138
     10 C14        61.6440   51.5306    7.1029 C.ar      1 MOL     0.0445
     11 N16        60.2125   52.3504    5.4029 N.pl3     1 MOL    -0.3432
     12 C3         62.2284   55.4781    8.2478 C.ar      1 MOL     0.0295
     13 C2         63.0606   55.7961    9.3240 C.ar      1 MOL     0.0108
     14 C1         63.7234   54.7849   10.0211 C.ar      1 MOL    -0.0171
     15 C11        66.5246   55.9107   12.0145 C.2       1 MOL     0.0459
     16 S9         65.5119   55.5941   13.3085 S.3       1 MOL    -0.1054
     17 H161       59.3917   52.9203    5.2553 H         1 MOL     0.1442
     18 H162       60.4259   51.5975    4.7645 H         1 MOL     0.1442
@<TRIPOS>BOND
     1    2    1 ar
     2    1    7 ar
     3    1   12 ar
     4    3    2 ar
     5    2    9 ar
     6   14    3 ar
     7    4    5 1 
     8    4    6 2 
     9    4   14 1 
    10    5   15 2 
    11    6   16 1 
    12    7    8 ar
    13    8   10 ar
    14    8   11 1 
    15    9   10 ar
    16   12   13 ar
    17   13   14 ar
    18   15   16 1 
    19   17   11 1 
    20   18   11 1 
@<TRIPOS>SUBSTRUCTURE
1 MOL         1
@<TRIPOS>MOLECULE
query molecule
   18    20     1     0     0
SMALL
NO_CHARGE

@<TRIPOS>ATOM
      1 C4         68.4280   52.6983   11.0099 C.ar      1 MOL     0.0725
      2 C5         67.1363   53.1569   11.2804 C.ar      1 MOL     0.0009
      3 C6         66.2646   52.3682   12.0319 C.ar      1 MOL     0.0187
      4 C7         65.8038   50.3135   13.2719 C.2       1 MOL    -0.0112
      5 C8         65.8079   50.3845   14.6337 C.2       1 MOL     0.0163
      6 C10        64.8823   49.4628   12.7846 C.2       1 MOL     0.0538
      7 N12        69.2885   53.4505   10.3050 N.ar      1 MOL    -0.2334
      8 C13        68.9376   54.6657    9.8331 C.ar      1 MOL     0.1153
      9 C15        66.7384   54.4060   10.8034 C.ar      1 MOL     0.0138
     10 C14        67.6520   55.1710   10.0678 C.ar      1 MOL     0.0445
     11 N16        69.8146   55.3749    9.1227 N.pl3     1 MOL    -0.3432
     12 C3         68.8355   51.4562   11.4944 C.ar      1 MOL     0.0295
     13 C2         67.9603   50.6635   12.2410 C.ar      1 MOL     0.0108
     14 C1         66.6630   51.1064   12.5034 C.ar      1 MOL    -0.0171
     15 C11        64.9471   49.6136   15.3167 C.2       1 MOL     0.0459
     16 S9         64.0921   48.7878   14.1388 S.3       1 MOL    -0.1054
     17 H161       70.1628   55.0149    8.2456 H         1 MOL     0.1442
     18 H162       70.1308   56.2723    9.4614 H         1 MOL     0.1442
@<TRIPOS>BOND
     1    2    1 ar
     2    1    7 ar
     3    1   12 ar
     4    3    2 ar
     5    2    9 ar
     6   14    3 ar
     7    4    5 1 
     8    4    6 2 
     9    4   14 1 
    10    5   15 2 
    11    6   16 1 
    12    7    8 ar
    13    8   10 ar
    14    8   11 1 
    15    9   10 ar
    16   12   13 ar
    17   13   14 ar
    18   15   16 1 
    19   17   11 1 
    20   18   11 1 
@<TRIPOS>SUBSTRUCTURE
1 MOL         1
@<TRIPOS>MOLECULE
query molecule
   18    20     1     0     0
SMALL
NO_CHARGE

@<TRIPOS>ATOM
      1 C4         63.8834   47.8400   15.1648 C.ar      1 MOL     0.0725
      2 C5         62.7729   48.6457   15.4288 C.ar      1 MOL     0.0009
      3 C6         62.3744   48.8654   16.7477 C.ar      1 MOL     0.0187
      4 C7         62.6849   48.4942   19.1430 C.2       1 MOL    -0.0112
      5 C8         63.5915   48.4173   20.1588 C.2       1 MOL     0.0163
      6 C10        61.4522   48.8441   19.5533 C.2       1 MOL     0.0538
      7 N12        64.2947   47.6320   13.9036 N.ar      1 MOL    -0.2334
      8 C13        63.6525   48.1866   12.8536 C.ar      1 MOL     0.1153
      9 C15        62.0823   49.2304   14.3670 C.ar      1 MOL     0.0138
     10 C14        62.5278   48.9963   13.0603 C.ar      1 MOL     0.0445
     11 N16        64.0810   47.9421   11.6154 N.pl3     1 MOL    -0.3432
     12 C3         64.5851   47.2630   16.2224 C.ar      1 MOL     0.0295
     13 C2         64.1818   47.4773   17.5427 C.ar      1 MOL     0.0108
     14 C1         63.0646   48.2682   17.8155 C.ar      1 MOL    -0.0171
     15 C11        63.1723   48.6634   21.4099 C.2       1 MOL     0.0459
     16 S9         61.5471   49.0281   21.2477 S.3       1 MOL    -0.1054
     17 H161       64.9986   47.5466   11.4674 H         1 MOL     0.1442
     18 H162       63.4884   48.1523   10.8251 H         1 MOL     0.1442
@<TRIPOS>BOND
     1    2    1 ar
     2    1    7 ar
     3    1   12 ar
     4    3    2 ar
     5    2    9 ar
     6   14    3 ar
     7    4    5 1 
     8    4    6 2 
     9    4   14 1 
    10    5   15 2 
    11    6   16 1 
    12    7    8 ar
    13    8   10 ar
    14    8   11 1 
    15    9   10 ar
    16   12   13 ar
    17   13   14 ar
    18   15   16 1 
    19   17   11 1 
    20   18   11 1 
@<TRIPOS>SUBSTRUCTURE
1 MOL         1
@<TRIPOS>MOLECULE
query molecule
   18    20     1     0     0
SMALL
NO_CHARGE

@<TRIPOS>ATOM
      1 C4         63.7285   46.2698    6.8135 C.ar      1 MOL     0.0725
      2 C5         63.4411   47.0859    7.9105 C.ar      1 MOL     0.0009
      3 C6         63.7204   46.6352    9.2010 C.ar      1 MOL     0.0187
      4 C7         64.5689   44.9031   10.7014 C.2       1 MOL    -0.0112
      5 C8         64.7402   43.5745   10.9567 C.2       1 MOL     0.0163
      6 C10        64.7624   45.6831   11.7806 C.2       1 MOL     0.0538
      7 N12        63.4853   46.6927    5.5625 N.ar      1 MOL    -0.2334
      8 C13        62.9547   47.9107    5.3222 C.ar      1 MOL     0.1153
      9 C15        62.8872   48.3487    7.6989 C.ar      1 MOL     0.0138
     10 C14        62.6392   48.7666    6.3857 C.ar      1 MOL     0.0445
     11 N16        62.7118   48.2874    4.0669 N.pl3     1 MOL    -0.3432
     12 C3         64.2936   45.0118    7.0179 C.ar      1 MOL     0.0295
     13 C2         64.5668   44.5578    8.3105 C.ar      1 MOL     0.0108
     14 C1         64.2690   45.3597    9.4134 C.ar      1 MOL    -0.0171
     15 C11        65.0458   43.1981   12.2084 C.2       1 MOL     0.0459
     16 S9         65.1332   44.6293   13.0713 S.3       1 MOL    -0.1054
     17 H161       63.4775   48.4148    3.4207 H         1 MOL     0.1442
     18 H162       61.7620   48.4454    3.7619 H         1 MOL     0.1442
@<TRIPOS>BOND
     1    2    1 ar
     2    1    7 ar
     3    1   12 ar
     4    3    2 ar
     5    2    9 ar
     6   14    3 ar
     7    4    5 1 
     8    4    6 2 
     9    4   14 1 
    10    5   15 2 
    11    6   16 1 
    12    7    8 ar
    13    8   10 ar
    14    8   11 1 
    15    9   10 ar
    16   12   13 ar
    17   13   14 ar
    18   15   16 1 
    19   17   11 1 
    20   18   11 1 
@<TRIPOS>SUBSTRUCTURE
1 MOL         1
@<TRIPOS>MOLECULE
query molecule
   18    20     1     0     0
SMALL
NO_CHARGE

@<TRIPOS>ATOM
      1 C4         67.6491   40.8280   13.1399 C.ar      1 MOL     0.0725
      2 C5         67.5394   41.8934   12.2428 C.ar      1 MOL     0.0009
      3 C6         68.5324   42.0966   11.2840 C.ar      1 MOL     0.0187
      4 C7         70.6485   41.4372   10.2551 C.2       1 MOL    -0.0112
      5 C8         70.4763   40.9996    8.9750 C.2       1 MOL     0.0163
      6 C10        71.8162   42.0775   10.4476 C.2       1 MOL     0.0538
      7 N12        66.6947   40.6038   14.0575 N.ar      1 MOL    -0.2334
      8 C13        65.6053   41.3962   14.1477 C.ar      1 MOL     0.1153
      9 C15        66.4293   42.7356   12.3112 C.ar      1 MOL     0.0138
     10 C14        65.4486   42.4840   13.2786 C.ar      1 MOL     0.0445
     11 N16        64.6883   41.1514   15.0834 N.pl3     1 MOL    -0.3432
     12 C3         68.7500   39.9756   13.0685 C.ar      1 MOL     0.0295
     13 C2         69.7477   40.1832   12.1129 C.ar      1 MOL     0.0108
     14 C1         69.6545   41.2538   11.2224 C.ar      1 MOL    -0.0171
     15 C11        71.4572   41.2215    8.0861 C.2       1 MOL     0.0459
     16 S9         72.6303   42.0475    8.9475 S.3       1 MOL    -0.1054
     17 H161       64.0142   40.4113   14.9486 H         1 MOL     0.1442
     18 H162       64.6673   41.7058   15.9274 H         1 MOL     0.1442
@<TRIPOS>BOND
     1    2    1 ar
     2    1    7 ar
     3    1   12 ar
     4    3    2 ar
     5    2    9 ar
     6   14    3 ar
     7    4    5 1 
     8    4    6 2 
     9    4   14 1 
    10    5   15 2 
    11    6   16 1 
    12    7    8 ar
    13    8   10 ar
    14    8   11 1 
    15    9   10 ar
    16   12   13 ar
    17   13   14 ar
    18   15   16 1 
    19   17   11 1 
    20   18   11 1 
@<TRIPOS>SUBSTRUCTURE
1 MOL         1
@<TRIPOS>MOLECULE
query molecule
   18    20     1     0     0
SMALL
NO_CHARGE

@<TRIPOS>ATOM
      1 C4         69.4819   50.7238   11.2665 C.ar      1 MOL     0.0725
      2 C5         68.7749   49.8354   10.4523 C.ar      1 MOL     0.0009
      3 C6         67.3800   49.8286   10.4824 C.ar      1 MOL     0.0187
      4 C7         65.2772   50.7058   11.3656 C.2       1 MOL    -0.0112
      5 C8         64.5625   51.4678   10.4891 C.2       1 MOL     0.0163
      6 C10        64.5049   49.9703   12.1861 C.2       1 MOL     0.0538
      7 N12        70.8239   50.7594   11.2381 N.ar      1 MOL    -0.2334
      8 C13        71.5325   49.9416   10.4307 C.ar      1 MOL     0.1153
      9 C15        69.4755   48.9721    9.6096 C.ar      1 MOL     0.0138
     10 C14        70.8748   49.0251    9.5997 C.ar      1 MOL     0.0445
     11 N16        72.8643   49.9950   10.4439 N.pl3     1 MOL    -0.3432
     12 C3         68.7870   51.5975   12.1017 C.ar      1 MOL     0.0295
     13 C2         67.3905   51.5859   12.1368 C.ar      1 MOL     0.0108
     14 C1         66.6759   50.6915   11.3385 C.ar      1 MOL    -0.0171
     15 C11        63.2223   51.4255   10.5504 C.2       1 MOL     0.0459
     16 S9         62.8888   50.3382   11.7781 S.3       1 MOL    -0.1054
     17 H161       73.3672   50.2628    9.6100 H         1 MOL     0.1442
     18 H162       73.3705   49.7678   11.2878 H         1 MOL     0.1442
@<TRIPOS>BOND
     1    2    1 ar
     2    1    7 ar
     3    1   12 ar
     4    3    2 ar
     5    2    9 ar
     6   14    3 ar
     7    4    5 1 
     8    4    6 2 
     9    4   14 1 
    10    5   15 2 
    11    6   16 1 
    12    7    8 ar
    13    8   10 ar
    14    8   11 1 
    15    9   10 ar
    16   12   13 ar
    17   13   14 ar
    18   15   16 1 
    19   17   11 1 
    20   18   11 1 
@<TRIPOS>SUBSTRUCTURE
1 MOL         1
@<TRIPOS>MOLECULE
query molecule
   18    20     1     0     0
SMALL
NO_CHARGE

@<TRIPOS>ATOM
      1 C4         67.7085   43.5835   13.4497 C.ar      1 MOL     0.0725
      2 C5         67.7756   42.2161   13.7283 C.ar      1 MOL     0.0009
      3 C6         66.6403   41.4206   13.5710 C.ar      1 MOL     0.0187
      4 C7         64.2808   41.1923   12.9777 C.2       1 MOL    -0.0112
      5 C8         63.9901   40.6346   11.7677 C.2       1 MOL     0.0163
      6 C10        63.4015   40.8636   13.9418 C.2       1 MOL     0.0538
      7 N12        68.7947   44.3627   13.5761 N.ar      1 MOL    -0.2334
      8 C13        69.9805   43.8571   13.9776 C.ar      1 MOL     0.1153
      9 C15        68.9839   41.6611   14.1506 C.ar      1 MOL     0.0138
     10 C14        70.1023   42.4941   14.2783 C.ar      1 MOL     0.0445
     11 N16        71.0315   44.6664   14.1076 N.pl3     1 MOL    -0.3432
     12 C3         66.5070   44.1416   13.0154 C.ar      1 MOL     0.0295
     13 C2         65.3684   43.3463   12.8646 C.ar      1 MOL     0.0108
     14 C1         65.4218   41.9822   13.1551 C.ar      1 MOL    -0.0171
     15 C11        62.8918   39.8701   11.6633 C.2       1 MOL     0.0459
     16 S9         62.2327   39.8638   13.2015 S.3       1 MOL    -0.1054
     17 H161       71.4610   45.0720   13.2884 H         1 MOL     0.1442
     18 H162       71.3985   44.8741   15.0254 H         1 MOL     0.1442
@<TRIPOS>BOND
     1    2    1 ar
     2    1    7 ar
     3    1   12 ar
     4    3    2 ar
     5    2    9 ar
     6   14    3 ar
     7    4    5 1 
     8    4    6 2 
     9    4   14 1 
    10    5   15 2 
    11    6   16 1 
    12    7    8 ar
    13    8   10 ar
    14    8   11 1 
    15    9   10 ar
    16   12   13 ar
    17   13   14 ar
    18   15   16 1 
    19   17   11 1 
    20   18   11 1 
@<TRIPOS>SUBSTRUCTURE
1 MOL         1
@<TRIPOS>MOLECULE
query molecule
   18    20     1     0     0
SMALL
NO_CHARGE

@<TRIPOS>ATOM
      1 C4         70.2519   47.4968    7.5003 C.ar      1 MOL     0.0725
      2 C5         69.0096   47.6264    8.1264 C.ar      1 MOL     0.0009
      3 C6         68.6418   48.8490    8.6890 C.ar      1 MOL     0.0187
      4 C7         69.1514   51.1840    9.1983 C.2       1 MOL    -0.0112
      5 C8         69.9542   51.8220   10.0972 C.2       1 MOL     0.0163
      6 C10        68.0443   51.8808    8.8829 C.2       1 MOL     0.0538
      7 N12        70.6168   46.3344    6.9358 N.ar      1 MOL    -0.2334
      8 C13        69.8040   45.2565    6.9563 C.ar      1 MOL     0.1153
      9 C15        68.1468   46.5311    8.1706 C.ar      1 MOL     0.0138
     10 C14        68.5505   45.3283    7.5781 C.ar      1 MOL     0.0445
     11 N16        70.2094   44.1151    6.4000 N.pl3     1 MOL    -0.3432
     12 C3         71.1135   48.5914    7.4420 C.ar      1 MOL     0.0295
     13 C2         70.7479   49.8136    8.0115 C.ar      1 MOL     0.0108
     14 C1         69.5154   49.9484    8.6524 C.ar      1 MOL    -0.0171
     15 C11        69.5613   53.0146   10.5717 C.2       1 MOL     0.0459
     16 S9         68.1078   53.3190    9.8003 S.3       1 MOL    -0.1054
     17 H161       70.0734   43.2402    6.8860 H         1 MOL     0.1442
     18 H162       70.6525   44.1250    5.4925 H         1 MOL     0.1442
@<TRIPOS>BOND
     1    2    1 ar
     2    1    7 ar
     3    1   12 ar
     4    3    2 ar
     5    2    9 ar
     6   14    3 ar
     7    4    5 1 
     8    4    6 2 
     9    4   14 1 
    10    5   15 2 
    11    6   16 1 
    12    7    8 ar
    13    8   10 ar
    14    8   11 1 
    15    9   10 ar
    16   12   13 ar
    17   13   14 ar
    18   15   16 1 
    19   17   11 1 
    20   18   11 1 
@<TRIPOS>SUBSTRUCTURE
1 MOL         1
@<TRIPOS>MOLECULE
query molecule
   18    20     1     0     0
SMALL
NO_CHARGE

@<TRIPOS>ATOM
      1 C4         78.4891   44.9083    9.5782 C.ar      1 MOL     0.0725
      2 C5         79.6724   44.4879    8.9658 C.ar      1 MOL     0.0009
      3 C6         79.6298   43.5000    7.9815 C.ar      1 MOL     0.0187
      4 C7         78.3539   41.9266    6.6149 C.2       1 MOL    -0.0112
      5 C8         78.1052   40.6214    6.9219 C.2       1 MOL     0.0163
      6 C10        78.4824   42.1490    5.2941 C.2       1 MOL     0.0538
      7 N12        78.5063   45.8713   10.5138 N.ar      1 MOL    -0.2334
      8 C13        79.6594   46.4604   10.8960 C.ar      1 MOL     0.1153
      9 C15        80.8829   45.0716    9.3404 C.ar      1 MOL     0.0138
     10 C14        80.8763   46.0715   10.3207 C.ar      1 MOL     0.0445
     11 N16        79.6373   47.4006   11.8405 N.pl3     1 MOL    -0.3432
     12 C3         77.2748   44.3375    9.1993 C.ar      1 MOL     0.0295
     13 C2         77.2330   43.3434    8.2186 C.ar      1 MOL     0.0108
     14 C1         78.4116   42.9062    7.6121 C.ar      1 MOL    -0.0171
     15 C11        78.0422   39.7298    5.9204 C.2       1 MOL     0.0459
     16 S9         78.2943   40.6323    4.5338 S.3       1 MOL    -0.1054
     17 H161       80.0632   48.3000   11.6679 H         1 MOL     0.1442
     18 H162       79.1947   47.2136   12.7289 H         1 MOL     0.1442
@<TRIPOS>BOND
     1    2    1 ar
     2    1    7 ar
     3    1   12 ar
     4    3    2 ar
     5    2    9 ar
     6   14    3 ar
     7    4    5 1 
     8    4    6 2 
     9    4   14 1 
    10    5   15 2 
    11    6   16 1 
    12    7    8 ar
    13    8   10 ar
    14    8   11 1 
    15    9   10 ar
    16   12   13 ar
    17   13   14 ar
    18   15   16 1 
    19   17   11 1 
    20   18   11 1 
@<TRIPOS>SUBSTRUCTURE
1 MOL         1
@<TRIPOS>MOLECULE
query molecule
   18    20     1     0     0
SMALL
NO_CHARGE

@<TRIPOS>ATOM
      1 C4         76.6728   44.2685    7.0964 C.ar      1 MOL     0.0725
      2 C5         77.3506   43.2640    7.7919 C.ar      1 MOL     0.0009
      3 C6         78.0813   43.5859    8.9360 C.ar      1 MOL     0.0187
      4 C7         78.8773   45.2466   10.5422 C.2       1 MOL    -0.0112
      5 C8         79.9136   46.1319   10.4993 C.2       1 MOL     0.0163
      6 C10        78.6133   44.7936   11.7815 C.2       1 MOL     0.0538
      7 N12        75.9483   43.9765    6.0042 N.ar      1 MOL    -0.2334
      8 C13        75.8529   42.7121    5.5405 C.ar      1 MOL     0.1153
      9 C15        77.2781   41.9470    7.3374 C.ar      1 MOL     0.0138
     10 C14        76.5192   41.6673    6.1943 C.ar      1 MOL     0.0445
     11 N16        75.1380   42.4652    4.4430 N.pl3     1 MOL    -0.3432
     12 C3         76.7314   45.5845    7.5527 C.ar      1 MOL     0.0295
     13 C2         77.4687   45.9078    8.6945 C.ar      1 MOL     0.0108
     14 C1         78.1616   44.9138    9.3871 C.ar      1 MOL    -0.0171
     15 C11        80.5503   46.4270   11.6436 C.2       1 MOL     0.0459
     16 S9         79.7531   45.5349   12.8137 S.3       1 MOL    -0.1054
     17 H161       75.3536   41.6618    3.8700 H         1 MOL     0.1442
     18 H162       74.3807   43.0813    4.1843 H         1 MOL     0.1442
@<TRIPOS>BOND
     1    2    1 ar
     2    1    7 ar
     3    1   12 ar
     4    3    2 ar
     5    2    9 ar
     6   14    3 ar
     7    4    5 1 
     8    4    6 2 
     9    4   14 1 
    10    5   15 2 
    11    6   16 1 
    12    7    8 ar
    13    8   10 ar
    14    8   11 1 
    15    9   10 ar
    16   12   13 ar
    17   13   14 ar
    18   15   16 1 
    19   17   11 1 
    20   18   11 1 
@<TRIPOS>SUBSTRUCTURE
1 MOL         1
@<TRIPOS>MOLECULE
query molecule
   18    20     1     0     0
SMALL
NO_CHARGE

@<TRIPOS>ATOM
      1 C4         70.3888   41.4192   14.0282 C.ar      1 MOL     0.0725
      2 C5         69.4167   40.4526   13.7585 C.ar      1 MOL     0.0009
      3 C6         68.1371   40.8476   13.3672 C.ar      1 MOL     0.0187
      4 C7         66.5321   42.6172   12.8534 C.2       1 MOL    -0.0112
      5 C8         65.8721   43.6196   13.5009 C.2       1 MOL     0.0163
      6 C10        65.8565   42.1286   11.7973 C.2       1 MOL     0.0538
      7 N12        71.6317   41.0594   14.3874 N.ar      1 MOL    -0.2334
      8 C13        71.9824   39.7609   14.5035 C.ar      1 MOL     0.1153
      9 C15        69.7433   39.1012   13.8738 C.ar      1 MOL     0.0138
     10 C14        71.0448   38.7503   14.2531 C.ar      1 MOL     0.0445
     11 N16        73.2214   39.4442   14.8793 N.pl3     1 MOL    -0.3432
     12 C3         70.0721   42.7711   13.9027 C.ar      1 MOL     0.0295
     13 C2         68.7888   43.1667   13.5176 C.ar      1 MOL     0.0108
     14 C1         67.8067   42.2088   13.2608 C.ar      1 MOL    -0.0171
     15 C11        64.6599   43.9812   13.0521 C.2       1 MOL     0.0459
     16 S9         64.3865   42.9937   11.7290 S.3       1 MOL    -0.1054
     17 H161       73.7380   38.7391   14.3733 H         1 MOL     0.1442
     18 H162       73.6438   39.9095   15.6700 H         1 MOL     0.1442
@<TRIPOS>BOND
     1    2    1 ar
     2    1    7 ar
     3    1   12 ar
     4    3    2 ar
     5    2    9 ar
     6   14    3 ar
     7    4    5 1 
     8    4    6 2 
     9    4   14 1 
    10    5   15 2 
    11    6   16 1 
    12    7    8 ar
    13    8   10 ar
    14    8   11 1 
    15    9   10 ar
    16   12   13 ar
    17   13   14 ar
    18   15   16 1 
    19   17   11 1 
    20   18   11 1 
@<TRIPOS>SUBSTRUCTURE
1 MOL         1
@<TRIPOS>MOLECULE
query molecule
   18    20     1     0     0
SMALL
NO_CHARGE

@<TRIPOS>ATOM
      1 C4         64.8401   48.2125    8.7047 C.ar      1 MOL     0.0725
      2 C5         65.3845   47.0367    9.2271 C.ar      1 MOL     0.0009
      3 C6         64.8657   46.4965   10.4042 C.ar      1 MOL     0.0187
      4 C7         63.2742   46.5922   12.2561 C.2       1 MOL    -0.0112
      5 C8         61.9608   46.2321   12.3270 C.2       1 MOL     0.0163
      6 C10        63.9610   46.3303   13.3831 C.2       1 MOL     0.0538
      7 N12        65.3123   48.7380    7.5627 N.ar      1 MOL    -0.2334
      8 C13        66.3247   48.1552    6.8859 C.ar      1 MOL     0.1153
      9 C15        66.4355   46.4108    8.5562 C.ar      1 MOL     0.0138
     10 C14        66.9134   46.9792    7.3691 C.ar      1 MOL     0.0445
     11 N16        66.7771   48.7170    5.7650 N.pl3     1 MOL    -0.3432
     12 C3         63.7815   48.8359    9.3639 C.ar      1 MOL     0.0295
     13 C2         63.2666   48.2987   10.5463 C.ar      1 MOL     0.0108
     14 C1         63.8140   47.1328   11.0840 C.ar      1 MOL    -0.0171
     15 C11        61.5046   45.7005   13.4720 C.2       1 MOL     0.0459
     16 S9         62.8413   45.6506   14.4777 S.3       1 MOL    -0.1054
     17 H161       66.6673   48.2404    4.8813 H         1 MOL     0.1442
     18 H162       67.2297   49.6192    5.7993 H         1 MOL     0.1442
@<TRIPOS>BOND
     1    2    1 ar
     2    1    7 ar
     3    1   12 ar
     4    3    2 ar
     5    2    9 ar
     6   14    3 ar
     7    4    5 1 
     8    4    6 2 
     9    4   14 1 
    10    5   15 2 
    11    6   16 1 
    12    7    8 ar
    13    8   10 ar
    14    8   11 1 
    15    9   10 ar
    16   12   13 ar
    17   13   14 ar
    18   15   16 1 
    19   17   11 1 
    20   18   11 1 
@<TRIPOS>SUBSTRUCTURE
1 MOL         1
@<TRIPOS>MOLECULE
query molecule
   18    20     1     0     0
SMALL
NO_CHARGE

@<TRIPOS>ATOM
      1 C4         72.5443   45.7377    7.1625 C.ar      1 MOL     0.0725
      2 C5         72.9724   47.0658    7.0916 C.ar      1 MOL     0.0009
      3 C6         72.9021   47.8775    8.2241 C.ar      1 MOL     0.0187
      4 C7         72.3255   48.1805   10.5794 C.2       1 MOL    -0.0112
      5 C8         71.5496   49.3013   10.6181 C.2       1 MOL     0.0163
      6 C10        72.9559   47.9274   11.7408 C.2       1 MOL     0.0538
      7 N12        72.6217   44.9346    6.0891 N.ar      1 MOL    -0.2334
      8 C13        73.1086   45.3795    4.9111 C.ar      1 MOL     0.1153
      9 C15        73.4762   47.5602    5.8883 C.ar      1 MOL     0.0138
     10 C14        73.5440   46.7049    4.7816 C.ar      1 MOL     0.0445
     11 N16        73.1530   44.5564    3.8637 N.pl3     1 MOL    -0.3432
     12 C3         72.0515   45.2343    8.3656 C.ar      1 MOL     0.0295
     13 C2         71.9747   46.0492    9.4977 C.ar      1 MOL     0.0108
     14 C1         72.3856   47.3814    9.4325 C.ar      1 MOL    -0.0171
     15 C11        71.5171   50.0174   11.7529 C.2       1 MOL     0.0459
     16 S9         72.5151   49.1852   12.8074 S.3       1 MOL    -0.1054
     17 H161       73.2151   44.9323    2.9283 H         1 MOL     0.1442
     18 H162       73.1248   43.5568    4.0053 H         1 MOL     0.1442
@<TRIPOS>BOND
     1    2    1 ar
     2    1    7 ar
     3    1   12 ar
     4    3    2 ar
     5    2    9 ar
     6   14    3 ar
     7    4    5 1 
     8    4    6 2 
     9    4   14 1 
    10    5   15 2 
    11    6   16 1 
    12    7    8 ar
    13    8   10 ar
    14    8   11 1 
    15    9   10 ar
    16   12   13 ar
    17   13   14 ar
    18   15   16 1 
    19   17   11 1 
    20   18   11 1 
@<TRIPOS>SUBSTRUCTURE
1 MOL         1
@<TRIPOS>MOLECULE
query molecule
   18    20     1     0     0
SMALL
NO_CHARGE

@<TRIPOS>ATOM
      1 C4         73.0522   49.4457    9.7833 C.ar      1 MOL     0.0725
      2 C5         73.3245   48.6237   10.8798 C.ar      1 MOL     0.0009
      3 C6         74.4031   47.7402   10.8321 C.ar      1 MOL     0.0187
      4 C7         76.3028   46.7811    9.6309 C.2       1 MOL    -0.0112
      5 C8         77.4853   47.0971   10.2322 C.2       1 MOL     0.0163
      6 C10        76.3071   45.5673    9.0502 C.2       1 MOL     0.0538
      7 N12        72.0306   50.3165    9.8166 N.ar      1 MOL    -0.2334
      8 C13        71.2339   50.4253   10.9012 C.ar      1 MOL     0.1153
      9 C15        72.5180   48.7061   12.0152 C.ar      1 MOL     0.0138
     10 C14        71.4565   49.6193   12.0254 C.ar      1 MOL     0.0445
     11 N16        70.2192   51.2895   10.8891 N.pl3     1 MOL    -0.3432
     12 C3         73.8620   49.3768    8.6505 C.ar      1 MOL     0.0295
     13 C2         74.9379   48.4870    8.6002 C.ar      1 MOL     0.0108
     14 C1         75.2085   47.6511    9.6846 C.ar      1 MOL    -0.0171
     15 C11        78.4937   46.2138   10.1634 C.2       1 MOL     0.0459
     16 S9         77.8666   44.9216    9.3046 S.3       1 MOL    -0.1054
     17 H161       69.6451   51.3828   10.0634 H         1 MOL     0.1442
     18 H162       70.0244   51.8510   11.7057 H         1 MOL     0.1442
@<TRIPOS>BOND
     1    2    1 ar
     2    1    7 ar
     3    1   12 ar
     4    3    2 ar
     5    2    9 ar
     6   14    3 ar
     7    4    5 1 
     8    4    6 2 
     9    4   14 1 
    10    5   15 2 
    11    6   16 1 
    12    7    8 ar
    13    8   10 ar
    14    8   11 1 
    15    9   10 ar
    16   12   13 ar
    17   13   14 ar
    18   15   16 1 
    19   17   11 1 
    20   18   11 1 
@<TRIPOS>SUBSTRUCTURE
1 MOL         1
@<TRIPOS>MOLECULE
query molecule
   18    20     1     0     0
SMALL
NO_CHARGE

@<TRIPOS>ATOM
      1 C4         75.7124   45.8773    8.5375 C.ar      1 MOL     0.0725
      2 C5         74.7672   45.9999    9.5591 C.ar      1 MOL     0.0009
      3 C6         73.4167   45.7849    9.2825 C.ar      1 MOL     0.0187
      4 C7         71.6424   45.2322    7.6958 C.2       1 MOL    -0.0112
      5 C8         71.0914   43.9953    7.8574 C.2       1 MOL     0.0163
      6 C10        70.7574   46.1621    7.2925 C.2       1 MOL     0.0538
      7 N12        77.0189   46.0611    8.7872 N.ar      1 MOL    -0.2334
      8 C13        77.4619   46.3724   10.0240 C.ar      1 MOL     0.1153
      9 C15        75.1895   46.3257   10.8482 C.ar      1 MOL     0.0138
     10 C14        76.5567   46.5161   11.0837 C.ar      1 MOL     0.0445
     11 N16        78.7651   46.5641   10.2281 N.pl3     1 MOL    -0.3432
     12 C3         75.2979   45.5397    7.2499 C.ar      1 MOL     0.0295
     13 C2         73.9448   45.3312    6.9716 C.ar      1 MOL     0.0108
     14 C1         72.9917   45.4664    7.9821 C.ar      1 MOL    -0.0171
     15 C11        69.7867   43.8360    7.5852 C.2       1 MOL     0.0459
     16 S9         69.2615   45.3569    7.1253 S.3       1 MOL    -0.1054
     17 H161       79.2913   45.9059   10.7849 H         1 MOL     0.1442
     18 H162       79.2264   47.3675    9.8259 H         1 MOL     0.1442
@<TRIPOS>BOND
     1    2    1 ar
     2    1    7 ar
     3    1   12 ar
     4    3    2 ar
     5    2    9 ar
     6   14    3 ar
     7    4    5 1 
     8    4    6 2 
     9    4   14 1 
    10    5   15 2 
    11    6   16 1 
    12    7    8 ar
    13    8   10 ar
    14    8   11 1 
    15    9   10 ar
    16   12   13 ar
    17   13   14 ar
    18   15   16 1 
    19   17   11 1 
    20   18   11 1 
@<TRIPOS>SUBSTRUCTURE
1 MOL         1
@<TRIPOS>MOLECULE
query molecule
   18    20     1     0     0
SMALL
NO_CHARGE

@<TRIPOS>ATOM
      1 C4         74.2824   51.7663    7.7744 C.ar      1 MOL     0.0725
      2 C5         73.5148   52.7493    7.1448 C.ar      1 MOL     0.0009
      3 C6         73.9247   54.0821    7.1892 C.ar      1 MOL     0.0187
      4 C7         75.5216   55.7830    7.9160 C.2       1 MOL    -0.0112
      5 C8         76.7701   56.1328    7.4935 C.2       1 MOL     0.0163
      6 C10        74.7774   56.8330    8.3085 C.2       1 MOL     0.0538
      7 N12        73.9156   50.4754    7.7268 N.ar      1 MOL    -0.2334
      8 C13        72.7983   50.0850    7.0772 C.ar      1 MOL     0.1153
      9 C15        72.3511   52.3818    6.4688 C.ar      1 MOL     0.0138
     10 C14        71.9869   51.0301    6.4357 C.ar      1 MOL     0.0445
     11 N16        72.4584   48.7962    7.0673 N.pl3     1 MOL    -0.3432
     12 C3         75.4530   52.1257    8.4409 C.ar      1 MOL     0.0295
     13 C2         75.8597   53.4613    8.4913 C.ar      1 MOL     0.0108
     14 C1         75.0914   54.4522    7.8784 C.ar      1 MOL    -0.0171
     15 C11        77.1196   57.4281    7.5351 C.2       1 MOL     0.0459
     16 S9         75.7644   58.2135    8.1243 S.3       1 MOL    -0.1054
     17 H161       72.3057   48.3075    7.9380 H         1 MOL     0.1442
     18 H162       72.3535   48.3083    6.1893 H         1 MOL     0.1442
@<TRIPOS>BOND
     1    2    1 ar
     2    1    7 ar
     3    1   12 ar
     4    3    2 ar
     5    2    9 ar
     6   14    3 ar
     7    4    5 1 
     8    4    6 2 
     9    4   14 1 
    10    5   15 2 
    11    6   16 1 
    12    7    8 ar
    13    8   10 ar
    14    8   11 1 
    15    9   10 ar
    16   12   13 ar
    17   13   14 ar
    18   15   16 1 
    19   17   11 1 
    20   18   11 1 
@<TRIPOS>SUBSTRUCTURE
1 MOL         1
@<TRIPOS>MOLECULE
query molecule
   18    20     1     0     0
SMALL
NO_CHARGE

@<TRIPOS>ATOM
      1 C4         74.7153   41.0985   17.8135 C.ar      1 MOL     0.0725
      2 C5         73.5759   40.7947   18.5628 C.ar      1 MOL     0.0009
      3 C6         72.3955   40.4332   17.9127 C.ar      1 MOL     0.0187
      4 C7         71.1591   40.0138   15.8470 C.2       1 MOL    -0.0112
      5 C8         70.3220   39.0748   16.3736 C.2       1 MOL     0.0163
      6 C10        70.7124   40.5393   14.6917 C.2       1 MOL     0.0538
      7 N12        75.8663   41.4298   18.4205 N.ar      1 MOL    -0.2334
      8 C13        75.9618   41.4845   19.7662 C.ar      1 MOL     0.1153
      9 C15        73.6374   40.8465   19.9556 C.ar      1 MOL     0.0138
     10 C14        74.8477   41.1978   20.5660 C.ar      1 MOL     0.0445
     11 N16        77.1173   41.8344   20.3309 N.pl3     1 MOL    -0.3432
     12 C3         74.6634   41.0365   16.4217 C.ar      1 MOL     0.0295
     13 C2         73.4795   40.6812   15.7706 C.ar      1 MOL     0.0108
     14 C1         72.3320   40.3909   16.5101 C.ar      1 MOL    -0.0171
     15 C11        69.2015   38.7683   15.7012 C.2       1 MOL     0.0459
     16 S9         69.2348   39.7556   14.3505 S.3       1 MOL    -0.1054
     17 H161       77.1235   42.2572   21.2482 H         1 MOL     0.1442
     18 H162       77.9867   41.6768   19.8417 H         1 MOL     0.1442
@<TRIPOS>BOND
     1    2    1 ar
     2    1    7 ar
     3    1   12 ar
     4    3    2 ar
     5    2    9 ar
     6   14    3 ar
     7    4    5 1 
     8    4    6 2 
     9    4   14 1 
    10    5   15 2 
    11    6   16 1 
    12    7    8 ar
    13    8   10 ar
    14    8   11 1 
    15    9   10 ar
    16   12   13 ar
    17   13   14 ar
    18   15   16 1 
    19   17   11 1 
    20   18   11 1 
@<TRIPOS>SUBSTRUCTURE
1 MOL         1
@<TRIPOS>MOLECULE
query molecule
   18    20     1     0     0
SMALL
NO_CHARGE

@<TRIPOS>ATOM
      1 C4         60.9161   45.5151    8.4476 C.ar      1 MOL     0.0725
      2 C5         61.8555   44.6688    9.0420 C.ar      1 MOL     0.0009
      3 C6         62.7200   45.1691   10.0160 C.ar      1 MOL     0.0187
      4 C7         63.5223   47.0311   11.3800 C.2       1 MOL    -0.0112
      5 C8         64.3207   48.1093   11.1353 C.2       1 MOL     0.0163
      6 C10        63.6161   46.5731   12.6417 C.2       1 MOL     0.0538
      7 N12        60.0622   45.0486    7.5223 N.ar      1 MOL    -0.2334
      8 C13        60.0833   43.7559    7.1335 C.ar      1 MOL     0.1153
      9 C15        61.9087   43.3280    8.6600 C.ar      1 MOL     0.0138
     10 C14        61.0104   42.8652    7.6906 C.ar      1 MOL     0.0445
     11 N16        59.2308   43.3349    6.1994 N.pl3     1 MOL    -0.3432
     12 C3         60.8498   46.8530    8.8341 C.ar      1 MOL     0.0295
     13 C2         61.7202   47.3555    9.8045 C.ar      1 MOL     0.0108
     14 C1         62.6720   46.5214   10.3928 C.ar      1 MOL    -0.0171
     15 C11        65.1010   48.5654   12.1277 C.2       1 MOL     0.0459
     16 S9         64.7621   47.5657   13.4262 S.3       1 MOL    -0.1054
     17 H161       58.7634   42.4459    6.3060 H         1 MOL     0.1442
     18 H162       59.0521   43.9048    5.3850 H         1 MOL     0.1442
@<TRIPOS>BOND
     1    2    1 ar
     2    1    7 ar
     3    1   12 ar
     4    3    2 ar
     5    2    9 ar
     6   14    3 ar
     7    4    5 1 
     8    4    6 2 
     9    4   14 1 
    10    5   15 2 
    11    6   16 1 
    12    7    8 ar
    13    8   10 ar
    14    8   11 1 
    15    9   10 ar
    16   12   13 ar
    17   13   14 ar
    18   15   16 1 
    19   17   11 1 
    20   18   11 1 
@<TRIPOS>SUBSTRUCTURE
1 MOL         1
@<TRIPOS>MOLECULE
query molecule
   18    20     1     0     0
SMALL
NO_CHARGE

@<TRIPOS>ATOM
      1 C4         68.6132   43.9186    8.4532 C.ar      1 MOL     0.0725
      2 C5         69.9609   43.5900    8.2871 C.ar      1 MOL     0.0009
      3 C6         70.5263   42.5743    9.0586 C.ar      1 MOL     0.0187
      4 C7         70.3122   40.8586   10.7855 C.2       1 MOL    -0.0112
      5 C8         71.1666   41.1246   11.8146 C.2       1 MOL     0.0163
      6 C10        70.0429   39.5483   10.6406 C.2       1 MOL     0.0538
      7 N12        68.0452   44.8797    7.7070 N.ar      1 MOL    -0.2334
      8 C13        68.7519   45.5602    6.7795 C.ar      1 MOL     0.1153
      9 C15        70.7224   44.2768    7.3412 C.ar      1 MOL     0.0138
     10 C14        70.1092   45.2773    6.5772 C.ar      1 MOL     0.0445
     11 N16        68.1566   46.5192    6.0707 N.pl3     1 MOL    -0.3432
     12 C3         67.8439   43.2274    9.3882 C.ar      1 MOL     0.0295
     13 C2         68.4119   42.2151   10.1656 C.ar      1 MOL     0.0108
     14 C1         69.7611   41.8901   10.0176 C.ar      1 MOL    -0.0171
     15 C11        71.6481   40.0948   12.5283 C.2       1 MOL     0.0459
     16 S9         70.9431   38.7397   11.8447 S.3       1 MOL    -0.1054
     17 H161       67.1556   46.6416    6.1272 H         1 MOL     0.1442
     18 H162       68.7064   47.1237    5.4771 H         1 MOL     0.1442
@<TRIPOS>BOND
     1    2    1 ar
     2    1    7 ar
     3    1   12 ar
     4    3    2 ar
     5    2    9 ar
     6   14    3 ar
     7    4    5 1 
     8    4    6 2 
     9    4   14 1 
    10    5   15 2 
    11    6   16 1 
    12    7    8 ar
    13    8   10 ar
    14    8   11 1 
    15    9   10 ar
    16   12   13 ar
    17   13   14 ar
    18   15   16 1 
    19   17   11 1 
    20   18   11 1 
@<TRIPOS>SUBSTRUCTURE
1 MOL         1
@<TRIPOS>MOLECULE
query molecule
   18    20     1     0     0
SMALL
NO_CHARGE

@<TRIPOS>ATOM
      1 C4         67.7526   53.2244   11.1234 C.ar      1 MOL     0.0725
      2 C5         68.3135   53.4555    9.8649 C.ar      1 MOL     0.0009
      3 C6         68.8615   52.3934    9.1452 C.ar      1 MOL     0.0187
      4 C7         69.4069   50.0185    8.9612 C.2       1 MOL    -0.0112
      5 C8         68.7657   49.5152    7.8678 C.2       1 MOL     0.0163
      6 C10        70.5794   49.4108    9.2189 C.2       1 MOL     0.0538
      7 N12        67.2028   54.2296   11.8237 N.ar      1 MOL    -0.2334
      8 C13        67.1761   55.4905   11.3420 C.ar      1 MOL     0.1153
      9 C15        68.3080   54.7476    9.3388 C.ar      1 MOL     0.0138
     10 C14        67.7320   55.7803   10.0889 C.ar      1 MOL     0.0445
     11 N16        66.6368   56.4644   12.0749 N.pl3     1 MOL    -0.3432
     12 C3         67.7440   51.9331   11.6491 C.ar      1 MOL     0.0295
     13 C2         68.2990   50.8708   10.9314 C.ar      1 MOL     0.0108
     14 C1         68.8753   51.0946    9.6801 C.ar      1 MOL    -0.0171
     15 C11        69.3342   48.4946    7.2068 C.2       1 MOL     0.0459
     16 S9         70.7617   48.2004    8.0292 S.3       1 MOL    -0.1054
     17 H161       66.8112   56.5041   13.0689 H         1 MOL     0.1442
     18 H162       66.0538   57.1628   11.6362 H         1 MOL     0.1442
@<TRIPOS>BOND
     1    2    1 ar
     2    1    7 ar
     3    1   12 ar
     4    3    2 ar
     5    2    9 ar
     6   14    3 ar
     7    4    5 1 
     8    4    6 2 
     9    4   14 1 
    10    5   15 2 
    11    6   16 1 
    12    7    8 ar
    13    8   10 ar
    14    8   11 1 
    15    9   10 ar
    16   12   13 ar
    17   13   14 ar
    18   15   16 1 
    19   17   11 1 
    20   18   11 1 
@<TRIPOS>SUBSTRUCTURE
1 MOL         1
@<TRIPOS>MOLECULE
query molecule
   18    20     1     0     0
SMALL
NO_CHARGE

@<TRIPOS>ATOM
      1 C4         69.8684   40.2313   15.0396 C.ar      1 MOL     0.0725
      2 C5         69.5052   39.4789   16.1594 C.ar      1 MOL     0.0009
      3 C6         70.3219   39.4822   17.2906 C.ar      1 MOL     0.0187
      4 C7         72.3375   40.2420   18.4445 C.2       1 MOL    -0.0112
      5 C8         72.7387   39.0877   19.0498 C.2       1 MOL     0.0163
      6 C10        72.8426   41.3491   19.0187 C.2       1 MOL     0.0538
      7 N12        69.0865   40.2570   13.9482 N.ar      1 MOL    -0.2334
      8 C13        67.9321   39.5590   13.8933 C.ar      1 MOL     0.1153
      9 C15        68.3213   38.7413   16.1350 C.ar      1 MOL     0.0138
     10 C14        67.5239   38.7809   14.9846 C.ar      1 MOL     0.0445
     11 N16        67.1919   39.5963   12.7854 N.pl3     1 MOL    -0.3432
     12 C3         71.0441   40.9803   15.0625 C.ar      1 MOL     0.0295
     13 C2         71.8653   40.9780   16.1927 C.ar      1 MOL     0.0108
     14 C1         71.5186   40.2175   17.3104 C.ar      1 MOL    -0.0171
     15 C11        73.5401   39.1738   20.1232 C.2       1 MOL     0.0459
     16 S9         73.7933   40.8147   20.3319 S.3       1 MOL    -0.1054
     17 H161       66.8483   40.4799   12.4371 H         1 MOL     0.1442
     18 H162       66.9746   38.7410   12.2942 H         1 MOL     0.1442
@<TRIPOS>BOND
     1    2    1 ar
     2    1    7 ar
     3    1   12 ar
     4    3    2 ar
     5    2    9 ar
     6   14    3 ar
     7    4    5 1 
     8    4    6 2 
     9    4   14 1 
    10    5   15 2 
    11    6   16 1 
    12    7    8 ar
    13    8   10 ar
    14    8   11 1 
    15    9   10 ar
    16   12   13 ar
    17   13   14 ar
    18   15   16 1 
    19   17   11 1 
    20   18   11 1 
@<TRIPOS>SUBSTRUCTURE
1 MOL         1
@<TRIPOS>MOLECULE
query molecule
   18    20     1     0     0
SMALL
NO_CHARGE

@<TRIPOS>ATOM
      1 C4         68.5512   50.0166    8.4992 C.ar      1 MOL     0.0725
      2 C5         68.6272   48.9998    9.4542 C.ar      1 MOL     0.0009
      3 C6         69.3126   49.2216   10.6490 C.ar      1 MOL     0.0187
      4 C7         70.6229   50.6907   12.0969 C.2       1 MOL    -0.0112
      5 C8         71.8465   50.1398   12.3398 C.2       1 MOL     0.0163
      6 C10        70.1921   51.4921   13.0882 C.2       1 MOL     0.0538
      7 N12        67.8799   49.8299    7.3513 N.ar      1 MOL    -0.2334
      8 C13        67.2625   48.6604    7.0796 C.ar      1 MOL     0.1153
      9 C15        68.0051   47.7764    9.2038 C.ar      1 MOL     0.0138
     10 C14        67.3139   47.6038    7.9983 C.ar      1 MOL     0.0445
     11 N16        66.6208   48.5077    5.9213 N.pl3     1 MOL    -0.3432
     12 C3         69.1602   51.2456    8.7489 C.ar      1 MOL     0.0295
     13 C2         69.8524   51.4653    9.9424 C.ar      1 MOL     0.0108
     14 C1         69.9467   50.4504   10.8958 C.ar      1 MOL    -0.0171
     15 C11        72.4554   50.4222   13.5023 C.2       1 MOL     0.0459
     16 S9         71.4034   51.4579   14.2905 S.3       1 MOL    -0.1054
     17 H161       65.8486   49.1155    5.6879 H         1 MOL     0.1442
     18 H162       66.9067   47.7844    5.2771 H         1 MOL     0.1442
@<TRIPOS>BOND
     1    2    1 ar
     2    1    7 ar
     3    1   12 ar
     4    3    2 ar
     5    2    9 ar
     6   14    3 ar
     7    4    5 1 
     8    4    6 2 
     9    4   14 1 
    10    5   15 2 
    11    6   16 1 
    12    7    8 ar
    13    8   10 ar
    14    8   11 1 
    15    9   10 ar
    16   12   13 ar
    17   13   14 ar
    18   15   16 1 
    19   17   11 1 
    20   18   11 1 
@<TRIPOS>SUBSTRUCTURE
1 MOL         1
@<TRIPOS>MOLECULE
query molecule
   18    20     1     0     0
SMALL
NO_CHARGE

@<TRIPOS>ATOM
      1 C4         64.1465   44.7156   11.3298 C.ar      1 MOL     0.0725
      2 C5         63.4720   45.8273   11.8408 C.ar      1 MOL     0.0009
      3 C6         63.6471   46.1901   13.1765 C.ar      1 MOL     0.0187
      4 C7         64.6757   45.8009   15.3587 C.2       1 MOL    -0.0112
      5 C8         64.4370   44.9196   16.3716 C.2       1 MOL     0.0163
      6 C10        65.1461   46.9877   15.7838 C.2       1 MOL     0.0538
      7 N12        64.0066   44.3613   10.0422 N.ar      1 MOL    -0.2334
      8 C13        63.2121   45.0592    9.2028 C.ar      1 MOL     0.1153
      9 C15        62.6385   46.5683   11.0025 C.ar      1 MOL     0.0138
     10 C14        62.5057   46.1777    9.6644 C.ar      1 MOL     0.0445
     11 N16        63.0857   44.6656    7.9356 N.pl3     1 MOL    -0.3432
     12 C3         64.9904   43.9785   12.1594 C.ar      1 MOL     0.0295
     13 C2         65.1604   44.3377   13.4987 C.ar      1 MOL     0.0108
     14 C1         64.4790   45.4376   14.0220 C.ar      1 MOL    -0.0171
     15 C11        64.6626   45.3190   17.6331 C.2       1 MOL     0.0459
     16 S9         65.2251   46.8882   17.4860 S.3       1 MOL    -0.1054
     17 H161       62.5296   45.2091    7.2911 H         1 MOL     0.1442
     18 H162       63.5461   43.8239    7.6200 H         1 MOL     0.1442
@<TRIPOS>BOND
     1    2    1 ar
     2    1    7 ar
     3    1   12 ar
     4    3    2 ar
     5    2    9 ar
     6   14    3 ar
     7    4    5 1 
     8    4    6 2 
     9    4   14 1 
    10    5   15 2 
    11    6   16 1 
    12    7    8 ar
    13    8   10 ar
    14    8   11 1 
    15    9   10 ar
    16   12   13 ar
    17   13   14 ar
    18   15   16 1 
    19   17   11 1 
    20   18   11 1 
@<TRIPOS>SUBSTRUCTURE
1 MOL         1
@<TRIPOS>MOLECULE
query molecule
   18    20     1     0     0
SMALL
NO_CHARGE

@<TRIPOS>ATOM
      1 C4         65.5276   54.8908   16.7058 C.ar      1 MOL     0.0725
      2 C5         65.4940   53.6245   16.1166 C.ar      1 MOL     0.0009
      3 C6         65.2662   52.4982   16.9079 C.ar      1 MOL     0.0187
      4 C7         64.8449   51.4994   19.0979 C.2       1 MOL    -0.0112
      5 C8         63.7529   51.4410   19.9127 C.2       1 MOL     0.0163
      6 C10        65.5919   50.3806   19.1256 C.2       1 MOL     0.0538
      7 N12        65.7261   55.9891   15.9591 N.ar      1 MOL    -0.2334
      8 C13        65.9028   55.9089   14.6230 C.ar      1 MOL     0.1153
      9 C15        65.6782   53.5044   14.7389 C.ar      1 MOL     0.0138
     10 C14        65.8870   54.6634   13.9814 C.ar      1 MOL     0.0445
     11 N16        66.1145   57.0205   13.9187 N.pl3     1 MOL    -0.3432
     12 C3         65.3318   55.0184   18.0803 C.ar      1 MOL     0.0295
     13 C2         65.1106   53.8899   18.8736 C.ar      1 MOL     0.0108
     14 C1         65.0905   52.6194   18.2962 C.ar      1 MOL    -0.0171
     15 C11        63.5594   50.3322   20.6440 C.2       1 MOL     0.0459
     16 S9         64.8339   49.3277   20.2351 S.3       1 MOL    -0.1054
     17 H161       65.8222   57.0699   12.9531 H         1 MOL     0.1442
     18 H162       66.5670   57.8135   14.3505 H         1 MOL     0.1442
@<TRIPOS>BOND
     1    2    1 ar
     2    1    7 ar
     3    1   12 ar
     4    3    2 ar
     5    2    9 ar
     6   14    3 ar
     7    4    5 1 
     8    4    6 2 
     9    4   14 1 
    10    5   15 2 
    11    6   16 1 
    12    7    8 ar
    13    8   10 ar
    14    8   11 1 
    15    9   10 ar
    16   12   13 ar
    17   13   14 ar
    18   15   16 1 
    19   17   11 1 
    20   18   11 1 
@<TRIPOS>SUBSTRUCTURE
1 MOL         1
@<TRIPOS>MOLECULE
query molecule
   18    20     1     0     0
SMALL
NO_CHARGE

@<TRIPOS>ATOM
      1 C4         66.5182   50.6621   13.6150 C.ar      1 MOL     0.0725
      2 C5         65.8980   50.8360   12.3753 C.ar      1 MOL     0.0009
      3 C6         66.4435   51.7223   11.4461 C.ar      1 MOL     0.0187
      4 C7         68.1659   53.3390   10.8205 C.2       1 MOL    -0.0112
      5 C8         67.5523   54.5127   10.4955 C.2       1 MOL     0.0163
      6 C10        69.3478   53.1654   10.2013 C.2       1 MOL     0.0538
      7 N12        66.0200   49.7996   14.5156 N.ar      1 MOL    -0.2334
      8 C13        64.9082   49.0781   14.2585 C.ar      1 MOL     0.1153
      9 C15        64.7441   50.1103   12.0784 C.ar      1 MOL     0.0138
     10 C14        64.2412   49.2194   13.0345 C.ar      1 MOL     0.0445
     11 N16        64.4347   48.2450   15.1850 N.pl3     1 MOL    -0.3432
     12 C3         67.6786   51.3753   13.9128 C.ar      1 MOL     0.0295
     13 C2         68.2210   52.2679   12.9850 C.ar      1 MOL     0.0108
     14 C1         67.5999   52.4597   11.7499 C.ar      1 MOL    -0.0171
     15 C11        68.1530   55.3249    9.6117 C.2       1 MOL     0.0459
     16 S9         69.5745   54.5376    9.2116 S.3       1 MOL    -0.1054
     17 H161       63.7318   48.5620   15.8374 H         1 MOL     0.1442
     18 H162       64.7788   47.2967   15.2346 H         1 MOL     0.1442
@<TRIPOS>BOND
     1    2    1 ar
     2    1    7 ar
     3    1   12 ar
     4    3    2 ar
     5    2    9 ar
     6   14    3 ar
     7    4    5 1 
     8    4    6 2 
     9    4   14 1 
    10    5   15 2 
    11    6   16 1 
    12    7    8 ar
    13    8   10 ar
    14    8   11 1 
    15    9   10 ar
    16   12   13 ar
    17   13   14 ar
    18   15   16 1 
    19   17   11 1 
    20   18   11 1 
@<TRIPOS>SUBSTRUCTURE
1 MOL         1
@<TRIPOS>MOLECULE
query molecule
   18    20     1     0     0
SMALL
NO_CHARGE

@<TRIPOS>ATOM
      1 C4         59.0596   49.8720   13.6960 C.ar      1 MOL     0.0725
      2 C5         59.8946   49.7291   14.8071 C.ar      1 MOL     0.0009
      3 C6         60.0496   50.7914   15.6981 C.ar      1 MOL     0.0187
      4 C7         59.5259   53.0801   16.3757 C.2       1 MOL    -0.0112
      5 C8         58.4375   53.6296   16.9865 C.2       1 MOL     0.0163
      6 C10        60.6902   53.6344   16.7601 C.2       1 MOL     0.0538
      7 N12        58.8818   48.8552   12.8372 N.ar      1 MOL    -0.2334
      8 C13        59.5018   47.6689   13.0133 C.ar      1 MOL     0.1153
      9 C15        60.5552   48.5183   15.0168 C.ar      1 MOL     0.0138
     10 C14        60.3569   47.4735   14.1059 C.ar      1 MOL     0.0445
     11 N16        59.3132   46.6894   12.1291 N.pl3     1 MOL    -0.3432
     12 C3         58.3870   51.0753   13.4878 C.ar      1 MOL     0.0295
     13 C2         58.5478   52.1414   14.3763 C.ar      1 MOL     0.0108
     14 C1         59.3916   52.0132   15.4806 C.ar      1 MOL    -0.0171
     15 C11        58.6308   54.6384   17.8506 C.2       1 MOL     0.0459
     16 S9         60.2894   54.8586   17.8802 S.3       1 MOL    -0.1054
     17 H161       59.5925   45.7452   12.3542 H         1 MOL     0.1442
     18 H162       58.8911   46.8914   11.2341 H         1 MOL     0.1442
@<TRIPOS>BOND
     1    2    1 ar
     2    1    7 ar
     3    1   12 ar
     4    3    2 ar
     5    2    9 ar
     6   14    3 ar
     7    4    5 1 
     8    4    6 2 
     9    4   14 1 
    10    5   15 2 
    11    6   16 1 
    12    7    8 ar
    13    8   10 ar
    14    8   11 1 
    15    9   10 ar
    16   12   13 ar
    17   13   14 ar
    18   15   16 1 
    19   17   11 1 
    20   18   11 1 
@<TRIPOS>SUBSTRUCTURE
1 MOL         1
@<TRIPOS>MOLECULE
query molecule
   18    20     1     0     0
SMALL
NO_CHARGE

@<TRIPOS>ATOM
      1 C4         64.8398   46.6183   15.9047 C.ar      1 MOL     0.0725
      2 C5         63.4942   46.9886   15.9690 C.ar      1 MOL     0.0009
      3 C6         63.0449   47.7864   17.0217 C.ar      1 MOL     0.0187
      4 C7         63.4914   49.0200   19.0834 C.2       1 MOL    -0.0112
      5 C8         63.0487   50.2896   18.8560 C.2       1 MOL     0.0163
      6 C10        63.4154   48.6517   20.3753 C.2       1 MOL     0.0538
      7 N12        65.2961   45.8671   14.8895 N.ar      1 MOL    -0.2334
      8 C13        64.4762   45.4428   13.9044 C.ar      1 MOL     0.1153
      9 C15        62.6177   46.5631   14.9704 C.ar      1 MOL     0.0138
     10 C14        63.1158   45.7777   13.9236 C.ar      1 MOL     0.0445
     11 N16        64.9635   44.6841   12.9228 N.pl3     1 MOL    -0.3432
     12 C3         65.7231   47.0507   16.8930 C.ar      1 MOL     0.0295
     13 C2         65.2717   47.8438   17.9508 C.ar      1 MOL     0.0108
     14 C1         63.9263   48.2061   18.0318 C.ar      1 MOL    -0.0171
     15 C11        62.6256   51.0162   19.9023 C.2       1 MOL     0.0459
     16 S9         62.7918   49.9977   21.2198 S.3       1 MOL    -0.1054
     17 H161       65.4520   45.1117   12.1490 H         1 MOL     0.1442
     18 H162       64.8444   43.6816   12.9528 H         1 MOL     0.1442
@<TRIPOS>BOND
     1    2    1 ar
     2    1    7 ar
     3    1   12 ar
     4    3    2 ar
     5    2    9 ar
     6   14    3 ar
     7    4    5 1 
     8    4    6 2 
     9    4   14 1 
    10    5   15 2 
    11    6   16 1 
    12    7    8 ar
    13    8   10 ar
    14    8   11 1 
    15    9   10 ar
    16   12   13 ar
    17   13   14 ar
    18   15   16 1 
    19   17   11 1 
    20   18   11 1 
@<TRIPOS>SUBSTRUCTURE
1 MOL         1
@<TRIPOS>MOLECULE
query molecule
   18    20     1     0     0
SMALL
NO_CHARGE

@<TRIPOS>ATOM
      1 C4         62.3069   43.8841   17.4323 C.ar      1 MOL     0.0725
      2 C5         63.6983   43.9581   17.5350 C.ar      1 MOL     0.0009
      3 C6         64.2842   44.9777   18.2858 C.ar      1 MOL     0.0187
      4 C7         64.0665   46.9631   19.6937 C.2       1 MOL    -0.0112
      5 C8         65.1942   47.6087   19.2799 C.2       1 MOL     0.0163
      6 C10        63.5751   47.4374   20.8531 C.2       1 MOL     0.0538
      7 N12        61.7230   42.8994   16.7306 N.ar      1 MOL    -0.2334
      8 C13        62.4541   41.9552   16.1008 C.ar      1 MOL     0.1153
      9 C15        64.4848   43.0018   16.8922 C.ar      1 MOL     0.0138
     10 C14        63.8535   41.9863   16.1634 C.ar      1 MOL     0.0445
     11 N16        61.8379   41.0038   15.3996 N.pl3     1 MOL    -0.3432
     12 C3         61.5152   44.8297   18.0826 C.ar      1 MOL     0.0295
     13 C2         62.1021   45.8547   18.8287 C.ar      1 MOL     0.0108
     14 C1         63.4915   45.9457   18.9244 C.ar      1 MOL    -0.0171
     15 C11        65.6886   48.5898   20.0510 C.2       1 MOL     0.0459
     16 S9         64.6320   48.6841   21.3453 S.3       1 MOL    -0.1054
     17 H161       61.5379   41.1882   14.4530 H         1 MOL     0.1442
     18 H162       61.6710   40.0984   15.8149 H         1 MOL     0.1442
@<TRIPOS>BOND
     1    2    1 ar
     2    1    7 ar
     3    1   12 ar
     4    3    2 ar
     5    2    9 ar
     6   14    3 ar
     7    4    5 1 
     8    4    6 2 
     9    4   14 1 
    10    5   15 2 
    11    6   16 1 
    12    7    8 ar
    13    8   10 ar
    14    8   11 1 
    15    9   10 ar
    16   12   13 ar
    17   13   14 ar
    18   15   16 1 
    19   17   11 1 
    20   18   11 1 
@<TRIPOS>SUBSTRUCTURE
1 MOL         1
@<TRIPOS>MOLECULE
query molecule
   18    20     1     0     0
SMALL
NO_CHARGE

@<TRIPOS>ATOM
      1 C4         62.8459   48.4558   12.6785 C.ar      1 MOL     0.0725
      2 C5         62.5350   49.6870   12.0958 C.ar      1 MOL     0.0009
      3 C6         61.5895   50.5185   12.6966 C.ar      1 MOL     0.0187
      4 C7         59.9912   50.9556   14.4927 C.2       1 MOL    -0.0112
      5 C8         59.4175   51.9953   13.8221 C.2       1 MOL     0.0163
      6 C10        59.5287   50.8099   15.7478 C.2       1 MOL     0.0538
      7 N12        63.7670   47.6496   12.1265 N.ar      1 MOL    -0.2334
      8 C13        64.4178   47.9956   10.9954 C.ar      1 MOL     0.1153
      9 C15        63.1847   50.0740   10.9234 C.ar      1 MOL     0.0138
     10 C14        64.1390   49.2151   10.3644 C.ar      1 MOL     0.0445
     11 N16        65.3130   47.1603   10.4686 N.pl3     1 MOL    -0.3432
     12 C3         62.2091   48.0690   13.8568 C.ar      1 MOL     0.0295
     13 C2         61.2572   48.8986   14.4546 C.ar      1 MOL     0.0108
     14 C1         60.9290   50.1235   13.8717 C.ar      1 MOL    -0.0171
     15 C11        58.5097   52.7471   14.4643 C.2       1 MOL     0.0459
     16 S9         58.3880   52.0576   15.9843 S.3       1 MOL    -0.1054
     17 H161       66.2440   47.1075   10.8567 H         1 MOL     0.1442
     18 H162       65.0604   46.5801    9.6815 H         1 MOL     0.1442
@<TRIPOS>BOND
     1    2    1 ar
     2    1    7 ar
     3    1   12 ar
     4    3    2 ar
     5    2    9 ar
     6   14    3 ar
     7    4    5 1 
     8    4    6 2 
     9    4   14 1 
    10    5   15 2 
    11    6   16 1 
    12    7    8 ar
    13    8   10 ar
    14    8   11 1 
    15    9   10 ar
    16   12   13 ar
    17   13   14 ar
    18   15   16 1 
    19   17   11 1 
    20   18   11 1 
@<TRIPOS>SUBSTRUCTURE
1 MOL         1
@<TRIPOS>MOLECULE
query molecule
   18    20     1     0     0
SMALL
NO_CHARGE

@<TRIPOS>ATOM
      1 C4         76.9935   42.2888   10.3931 C.ar      1 MOL     0.0725
      2 C5         77.1924   40.9207   10.1914 C.ar      1 MOL     0.0009
      3 C6         76.5214   40.2684    9.1566 C.ar      1 MOL     0.0187
      4 C7         74.9641   40.3279    7.2744 C.2       1 MOL    -0.0112
      5 C8         75.4016   40.4440    5.9880 C.2       1 MOL     0.0163
      6 C10        73.8937   39.5228    7.4034 C.2       1 MOL     0.0538
      7 N12        77.6444   42.9391   11.3712 N.ar      1 MOL    -0.2334
      8 C13        78.5047   42.2980   12.1907 C.ar      1 MOL     0.1153
      9 C15        78.0705   40.2258   11.0234 C.ar      1 MOL     0.0138
     10 C14        78.7353   40.9244   12.0386 C.ar      1 MOL     0.0445
     11 N16        79.1186   42.9750   13.1610 N.pl3     1 MOL    -0.3432
     12 C3         76.1266   42.9913    9.5571 C.ar      1 MOL     0.0295
     13 C2         75.4495   42.3367    8.5253 C.ar      1 MOL     0.0108
     14 C1         75.6301   40.9672    8.3257 C.ar      1 MOL    -0.0171
     15 C11        74.7331   39.7917    5.0240 C.2       1 MOL     0.0459
     16 S9         73.5085   38.9847    5.8299 S.3       1 MOL    -0.1054
     17 H161       78.7998   43.9002   13.4109 H         1 MOL     0.1442
     18 H162       79.9025   42.5628   13.6464 H         1 MOL     0.1442
@<TRIPOS>BOND
     1    2    1 ar
     2    1    7 ar
     3    1   12 ar
     4    3    2 ar
     5    2    9 ar
     6   14    3 ar
     7    4    5 1 
     8    4    6 2 
     9    4   14 1 
    10    5   15 2 
    11    6   16 1 
    12    7    8 ar
    13    8   10 ar
    14    8   11 1 
    15    9   10 ar
    16   12   13 ar
    17   13   14 ar
    18   15   16 1 
    19   17   11 1 
    20   18   11 1 
@<TRIPOS>SUBSTRUCTURE
1 MOL         1
@<TRIPOS>MOLECULE
query molecule
   18    20     1     0     0
SMALL
NO_CHARGE

@<TRIPOS>ATOM
      1 C4         78.1287   42.3565    9.2954 C.ar      1 MOL     0.0725
      2 C5         78.0812   40.9705    9.1259 C.ar      1 MOL     0.0009
      3 C6         77.5621   40.4344    7.9471 C.ar      1 MOL     0.0187
      4 C7         76.5584   40.7469    5.7411 C.2       1 MOL    -0.0112
      5 C8         75.7965   39.6159    5.7359 C.2       1 MOL     0.0163
      6 C10        76.7120   41.2925    4.5207 C.2       1 MOL     0.0538
      7 N12        78.6423   42.8929   10.4142 N.ar      1 MOL    -0.2334
      8 C13        79.1237   42.1177   11.4092 C.ar      1 MOL     0.1153
      9 C15        78.5652   40.1394   10.1364 C.ar      1 MOL     0.0138
     10 C14        79.0929   40.7215   11.2955 C.ar      1 MOL     0.0445
     11 N16        79.6096   42.6875   12.5119 N.pl3     1 MOL    -0.3432
     12 C3         77.6579   43.1926    8.2839 C.ar      1 MOL     0.0295
     13 C2         77.1318   42.6554    7.1064 C.ar      1 MOL     0.0108
     14 C1         77.0661   41.2720    6.9344 C.ar      1 MOL    -0.0171
     15 C11        75.3211   39.1706    4.5623 C.2       1 MOL     0.0459
     16 S9         75.8702   40.2791    3.4352 S.3       1 MOL    -0.1054
     17 H161       79.2129   43.5526   12.8501 H         1 MOL     0.1442
     18 H162       80.3744   42.2542   13.0092 H         1 MOL     0.1442
@<TRIPOS>BOND
     1    2    1 ar
     2    1    7 ar
     3    1   12 ar
     4    3    2 ar
     5    2    9 ar
     6   14    3 ar
     7    4    5 1 
     8    4    6 2 
     9    4   14 1 
    10    5   15 2 
    11    6   16 1 
    12    7    8 ar
    13    8   10 ar
    14    8   11 1 
    15    9   10 ar
    16   12   13 ar
    17   13   14 ar
    18   15   16 1 
    19   17   11 1 
    20   18   11 1 
@<TRIPOS>SUBSTRUCTURE
1 MOL         1
@<TRIPOS>MOLECULE
query molecule
   18    20     1     0     0
SMALL
NO_CHARGE

@<TRIPOS>ATOM
      1 C4         77.0121   45.9563    9.2844 C.ar      1 MOL     0.0725
      2 C5         77.1126   44.5692    9.4177 C.ar      1 MOL     0.0009
      3 C6         76.3074   43.7383    8.6382 C.ar      1 MOL     0.0187
      4 C7         74.5782   43.4575    6.9345 C.2       1 MOL    -0.0112
      5 C8         74.8693   43.2533    5.6180 C.2       1 MOL     0.0163
      6 C10        73.5052   42.7645    7.3575 C.2       1 MOL     0.0538
      7 N12        77.7917   46.7729   10.0113 N.ar      1 MOL    -0.2334
      8 C13        78.6910   46.2864   10.8930 C.ar      1 MOL     0.1153
      9 C15        78.0278   44.0322   10.3234 C.ar      1 MOL     0.0138
     10 C14        78.8277   44.9036   11.0729 C.ar      1 MOL     0.0445
     11 N16        79.4346   47.1298   11.6087 N.pl3     1 MOL    -0.3432
     12 C3         76.1081   46.4987    8.3720 C.ar      1 MOL     0.0295
     13 C2         75.2969   45.6667    7.5965 C.ar      1 MOL     0.0108
     14 C1         75.3794   44.2802    7.7336 C.ar      1 MOL    -0.0171
     15 C11        74.0751   42.4379    4.9066 C.2       1 MOL     0.0459
     16 S9         72.9262   41.9056    6.0007 S.3       1 MOL    -0.1054
     17 H161       80.0353   46.7775   12.3403 H         1 MOL     0.1442
     18 H162       79.3975   48.1212   11.4194 H         1 MOL     0.1442
@<TRIPOS>BOND
     1    2    1 ar
     2    1    7 ar
     3    1   12 ar
     4    3    2 ar
     5    2    9 ar
     6   14    3 ar
     7    4    5 1 
     8    4    6 2 
     9    4   14 1 
    10    5   15 2 
    11    6   16 1 
    12    7    8 ar
    13    8   10 ar
    14    8   11 1 
    15    9   10 ar
    16   12   13 ar
    17   13   14 ar
    18   15   16 1 
    19   17   11 1 
    20   18   11 1 
@<TRIPOS>SUBSTRUCTURE
1 MOL         1
@<TRIPOS>MOLECULE
query molecule
   18    20     1     0     0
SMALL
NO_CHARGE

@<TRIPOS>ATOM
      1 C4         65.5105   41.3974   14.6440 C.ar      1 MOL     0.0725
      2 C5         65.6065   42.4898   13.7782 C.ar      1 MOL     0.0009
      3 C6         66.5586   42.4837   12.7584 C.ar      1 MOL     0.0187
      4 C7         68.3860   41.3743   11.5746 C.2       1 MOL    -0.0112
      5 C8         69.1295   42.4771   11.2734 C.2       1 MOL     0.0163
      6 C10        68.6977   40.3000   10.8268 C.2       1 MOL     0.0538
      7 N12        64.5882   41.3753   15.6197 N.ar      1 MOL    -0.2334
      8 C13        63.7299   42.4018   15.7998 C.ar      1 MOL     0.1153
      9 C15        64.7387   43.5702   13.9391 C.ar      1 MOL     0.0138
     10 C14        63.7874   43.5260   14.9657 C.ar      1 MOL     0.0445
     11 N16        62.8398   42.3500   16.7906 N.pl3     1 MOL    -0.3432
     12 C3         66.3667   40.3093   14.4805 C.ar      1 MOL     0.0295
     13 C2         67.3246   40.3063   13.4636 C.ar      1 MOL     0.0108
     14 C1         67.4382   41.3995   12.6035 C.ar      1 MOL    -0.0171
     15 C11        70.0372   42.3868   10.2887 C.2       1 MOL     0.0459
     16 S9         69.9287   40.8038    9.7569 S.3       1 MOL    -0.1054
     17 H161       62.1130   43.0485   16.8536 H         1 MOL     0.1442
     18 H162       62.8922   41.6124   17.4785 H         1 MOL     0.1442
@<TRIPOS>BOND
     1    2    1 ar
     2    1    7 ar
     3    1   12 ar
     4    3    2 ar
     5    2    9 ar
     6   14    3 ar
     7    4    5 1 
     8    4    6 2 
     9    4   14 1 
    10    5   15 2 
    11    6   16 1 
    12    7    8 ar
    13    8   10 ar
    14    8   11 1 
    15    9   10 ar
    16   12   13 ar
    17   13   14 ar
    18   15   16 1 
    19   17   11 1 
    20   18   11 1 
@<TRIPOS>SUBSTRUCTURE
1 MOL         1
@<TRIPOS>MOLECULE
query molecule
   18    20     1     0     0
SMALL
NO_CHARGE

@<TRIPOS>ATOM
      1 C4         76.6557   41.2354   10.5492 C.ar      1 MOL     0.0725
      2 C5         77.1078   42.5543   10.6388 C.ar      1 MOL     0.0009
      3 C6         77.8287   43.1126    9.5829 C.ar      1 MOL     0.0187
      4 C7         78.8322   42.9107    7.3639 C.2       1 MOL    -0.0112
      5 C8         78.2671   43.8549    6.5584 C.2       1 MOL     0.0163
      6 C10        80.1079   42.6289    7.0421 C.2       1 MOL     0.0538
      7 N12        75.9437   40.6857   11.5462 N.ar      1 MOL    -0.2334
      8 C13        75.6449   41.3815   12.6640 C.ar      1 MOL     0.1153
      9 C15        76.8216   43.3007   11.7822 C.ar      1 MOL     0.0138
     10 C14        76.0805   42.7052   12.8102 C.ar      1 MOL     0.0445
     11 N16        74.9508   40.7952   13.6391 N.pl3     1 MOL    -0.3432
     12 C3         76.9278   40.4883    9.4039 C.ar      1 MOL     0.0295
     13 C2         77.6557   41.0453    8.3495 C.ar      1 MOL     0.0108
     14 C1         78.1246   42.3569    8.4363 C.ar      1 MOL    -0.0171
     15 C11        79.0019   44.3639    5.5571 C.2       1 MOL     0.0459
     16 S9         80.4844   43.5988    5.6888 S.3       1 MOL    -0.1054
     17 H161       75.3725   40.0588   14.1869 H         1 MOL     0.1442
     18 H162       74.0030   41.0872   13.8304 H         1 MOL     0.1442
@<TRIPOS>BOND
     1    2    1 ar
     2    1    7 ar
     3    1   12 ar
     4    3    2 ar
     5    2    9 ar
     6   14    3 ar
     7    4    5 1 
     8    4    6 2 
     9    4   14 1 
    10    5   15 2 
    11    6   16 1 
    12    7    8 ar
    13    8   10 ar
    14    8   11 1 
    15    9   10 ar
    16   12   13 ar
    17   13   14 ar
    18   15   16 1 
    19   17   11 1 
    20   18   11 1 
@<TRIPOS>SUBSTRUCTURE
1 MOL         1
@<TRIPOS>MOLECULE
query molecule
   18    20     1     0     0
SMALL
NO_CHARGE

@<TRIPOS>ATOM
      1 C4         64.1428   45.0878   16.8687 C.ar      1 MOL     0.0725
      2 C5         64.1175   44.7385   18.2212 C.ar      1 MOL     0.0009
      3 C6         63.6473   43.4817   18.6032 C.ar      1 MOL     0.0187
      4 C7         62.7199   41.2991   18.0136 C.2       1 MOL    -0.0112
      5 C8         63.5402   40.4075   18.6397 C.2       1 MOL     0.0163
      6 C10        61.4646   40.8439   17.8477 C.2       1 MOL     0.0538
      7 N12        64.6095   46.2850   16.4787 N.ar      1 MOL    -0.2334
      8 C13        65.0640   47.1883   17.3733 C.ar      1 MOL     0.1153
      9 C15        64.5746   45.6500   19.1732 C.ar      1 MOL     0.0138
     10 C14        65.0536   46.8935   18.7430 C.ar      1 MOL     0.0445
     11 N16        65.5033   48.3727   16.9482 N.pl3     1 MOL    -0.3432
     12 C3         63.6988   44.1764   15.9115 C.ar      1 MOL     0.0295
     13 C2         63.2216   42.9206   16.2948 C.ar      1 MOL     0.0108
     14 C1         63.1782   42.5684   17.6446 C.ar      1 MOL    -0.0171
     15 C11        63.0385   39.2120   18.9871 C.2       1 MOL     0.0459
     16 S9         61.4387   39.2663   18.4991 S.3       1 MOL    -0.1054
     17 H161       66.2755   48.8233   17.4182 H         1 MOL     0.1442
     18 H162       65.0641   48.8197   16.1562 H         1 MOL     0.1442
@<TRIPOS>BOND
     1    2    1 ar
     2    1    7 ar
     3    1   12 ar
     4    3    2 ar
     5    2    9 ar
     6   14    3 ar
     7    4    5 1 
     8    4    6 2 
     9    4   14 1 
    10    5   15 2 
    11    6   16 1 
    12    7    8 ar
    13    8   10 ar
    14    8   11 1 
    15    9   10 ar
    16   12   13 ar
    17   13   14 ar
    18   15   16 1 
    19   17   11 1 
    20   18   11 1 
@<TRIPOS>SUBSTRUCTURE
1 MOL         1
@<TRIPOS>MOLECULE
query molecule
   18    20     1     0     0
SMALL
NO_CHARGE

@<TRIPOS>ATOM
      1 C4         70.6412   51.9225   10.5090 C.ar      1 MOL     0.0725
      2 C5         71.3236   52.4954   11.5851 C.ar      1 MOL     0.0009
      3 C6         71.7750   53.8126   11.4968 C.ar      1 MOL     0.0187
      4 C7         72.0029   55.8924   10.2343 C.2       1 MOL    -0.0112
      5 C8         71.8756   56.7524   11.2850 C.2       1 MOL     0.0163
      6 C10        72.6106   56.4409    9.1664 C.2       1 MOL     0.0538
      7 N12        70.1817   50.6628   10.5813 N.ar      1 MOL    -0.2334
      8 C13        70.3649   49.9095   11.6866 C.ar      1 MOL     0.1153
      9 C15        71.5353   51.7435   12.7410 C.ar      1 MOL     0.0138
     10 C14        71.0500   50.4310   12.7919 C.ar      1 MOL     0.0445
     11 N16        69.9091   48.6573   11.7133 N.pl3     1 MOL    -0.3432
     12 C3         70.4157   52.6729    9.3558 C.ar      1 MOL     0.0295
     13 C2         70.8737   53.9896    9.2649 C.ar      1 MOL     0.0108
     14 C1         71.5698   54.5654   10.3288 C.ar      1 MOL    -0.0171
     15 C11        72.3273   58.0082   11.1417 C.2       1 MOL     0.0459
     16 S9         72.9575   58.0571    9.5922 S.3       1 MOL    -0.1054
     17 H161       68.9271   48.4805   11.8702 H         1 MOL     0.1442
     18 H162       70.5455   47.8851   11.5765 H         1 MOL     0.1442
@<TRIPOS>BOND
     1    2    1 ar
     2    1    7 ar
     3    1   12 ar
     4    3    2 ar
     5    2    9 ar
     6   14    3 ar
     7    4    5 1 
     8    4    6 2 
     9    4   14 1 
    10    5   15 2 
    11    6   16 1 
    12    7    8 ar
    13    8   10 ar
    14    8   11 1 
    15    9   10 ar
    16   12   13 ar
    17   13   14 ar
    18   15   16 1 
    19   17   11 1 
    20   18   11 1 
@<TRIPOS>SUBSTRUCTURE
1 MOL         1
@<TRIPOS>MOLECULE
query molecule
   18    20     1     0     0
SMALL
NO_CHARGE

@<TRIPOS>ATOM
      1 C4         66.1960   48.3591    8.2219 C.ar      1 MOL     0.0725
      2 C5         67.1434   47.4016    7.8508 C.ar      1 MOL     0.0009
      3 C6         68.4948   47.7456    7.8059 C.ar      1 MOL     0.0187
      4 C7         70.2677   49.4040    8.0843 C.2       1 MOL    -0.0112
      5 C8         70.9437   49.6900    9.2336 C.2       1 MOL     0.0163
      6 C10        71.0405   49.4548    6.9839 C.2       1 MOL     0.0538
      7 N12        64.8927   48.0430    8.2901 N.ar      1 MOL    -0.2334
      8 C13        64.4543   46.7992    8.0009 C.ar      1 MOL     0.1153
      9 C15        66.7247   46.1077    7.5400 C.ar      1 MOL     0.0138
     10 C14        65.3601   45.8025    7.6148 C.ar      1 MOL     0.0445
     11 N16        63.1506   46.5292    8.0634 N.pl3     1 MOL    -0.3432
     12 C3         66.6095   49.6505    8.5457 C.ar      1 MOL     0.0295
     13 C2         67.9620   49.9967    8.4940 C.ar      1 MOL     0.0108
     14 C1         68.9141   49.0513    8.1096 C.ar      1 MOL    -0.0171
     15 C11        72.2462   50.0030    9.1483 C.2       1 MOL     0.0459
     16 S9         72.6008   49.8977    7.5162 S.3       1 MOL    -0.1054
     17 H161       62.6018   46.8660    8.8415 H         1 MOL     0.1442
     18 H162       62.7114   45.9878    7.3326 H         1 MOL     0.1442
@<TRIPOS>BOND
     1    2    1 ar
     2    1    7 ar
     3    1   12 ar
     4    3    2 ar
     5    2    9 ar
     6   14    3 ar
     7    4    5 1 
     8    4    6 2 
     9    4   14 1 
    10    5   15 2 
    11    6   16 1 
    12    7    8 ar
    13    8   10 ar
    14    8   11 1 
    15    9   10 ar
    16   12   13 ar
    17   13   14 ar
    18   15   16 1 
    19   17   11 1 
    20   18   11 1 
@<TRIPOS>SUBSTRUCTURE
1 MOL         1
@<TRIPOS>MOLECULE
query molecule
   18    20     1     0     0
SMALL
NO_CHARGE

@<TRIPOS>ATOM
      1 C4         78.2981   50.9238    6.3609 C.ar      1 MOL     0.0725
      2 C5         77.8454   51.2083    7.6516 C.ar      1 MOL     0.0009
      3 C6         76.9854   50.3184    8.2958 C.ar      1 MOL     0.0187
      4 C7         75.7020   48.2388    8.2950 C.2       1 MOL    -0.0112
      5 C8         74.6742   47.6412    7.6270 C.2       1 MOL     0.0163
      6 C10        75.8192   47.8286    9.5711 C.2       1 MOL     0.0538
      7 N12        79.1415   51.7577    5.7312 N.ar      1 MOL    -0.2334
      8 C13        79.5756   52.8940    6.3170 C.ar      1 MOL     0.1153
      9 C15        78.2697   52.3767    8.2849 C.ar      1 MOL     0.0138
     10 C14        79.1466   53.2326    7.6072 C.ar      1 MOL     0.0445
     11 N16        80.3989   53.7047    5.6526 N.pl3     1 MOL    -0.3432
     12 C3         77.8874   49.7517    5.7275 C.ar      1 MOL     0.0295
     13 C2         77.0207   48.8640    6.3699 C.ar      1 MOL     0.0108
     14 C1         76.5510   49.1471    7.6534 C.ar      1 MOL    -0.0171
     15 C11        73.9052   46.7635    8.2902 C.2       1 MOL     0.0459
     16 S9         74.5620   46.7029    9.8282 S.3       1 MOL    -0.1054
     17 H161       80.5346   53.5830    4.6591 H         1 MOL     0.1442
     18 H162       80.8870   54.4408    6.1424 H         1 MOL     0.1442
@<TRIPOS>BOND
     1    2    1 ar
     2    1    7 ar
     3    1   12 ar
     4    3    2 ar
     5    2    9 ar
     6   14    3 ar
     7    4    5 1 
     8    4    6 2 
     9    4   14 1 
    10    5   15 2 
    11    6   16 1 
    12    7    8 ar
    13    8   10 ar
    14    8   11 1 
    15    9   10 ar
    16   12   13 ar
    17   13   14 ar
    18   15   16 1 
    19   17   11 1 
    20   18   11 1 
@<TRIPOS>SUBSTRUCTURE
1 MOL         1
@<TRIPOS>MOLECULE
query molecule
   18    20     1     0     0
SMALL
NO_CHARGE

@<TRIPOS>ATOM
      1 C4         72.3111   42.6015    9.3975 C.ar      1 MOL     0.0725
      2 C5         72.8437   41.5939   10.2055 C.ar      1 MOL     0.0009
      3 C6         74.1748   41.2082   10.0446 C.ar      1 MOL     0.0187
      4 C7         76.3234   41.4407    8.9039 C.2       1 MOL    -0.0112
      5 C8         76.6923   40.4946    7.9937 C.2       1 MOL     0.0163
      6 C10        77.3645   41.9835    9.5612 C.2       1 MOL     0.0538
      7 N12        71.0380   43.0007    9.5496 N.ar      1 MOL    -0.2334
      8 C13        70.2324   42.4440   10.4790 C.ar      1 MOL     0.1153
      9 C15        72.0376   40.9930   11.1728 C.ar      1 MOL     0.0138
     10 C14        70.7123   41.4235   11.3105 C.ar      1 MOL     0.0445
     11 N16        68.9693   42.8555   10.5875 N.pl3     1 MOL    -0.3432
     12 C3         73.1151   43.2144    8.4375 C.ar      1 MOL     0.0295
     13 C2         74.4461   42.8233    8.2718 C.ar      1 MOL     0.0108
     14 C1         74.9826   41.8071    9.0638 C.ar      1 MOL    -0.0171
     15 C11        77.9958   40.1988    7.8715 C.2       1 MOL     0.0459
     16 S9         78.7627   41.2060    8.9661 S.3       1 MOL    -0.1054
     17 H161       68.4184   42.5884   11.3909 H         1 MOL     0.1442
     18 H162       68.5630   43.4343    9.8665 H         1 MOL     0.1442
@<TRIPOS>BOND
     1    2    1 ar
     2    1    7 ar
     3    1   12 ar
     4    3    2 ar
     5    2    9 ar
     6   14    3 ar
     7    4    5 1 
     8    4    6 2 
     9    4   14 1 
    10    5   15 2 
    11    6   16 1 
    12    7    8 ar
    13    8   10 ar
    14    8   11 1 
    15    9   10 ar
    16   12   13 ar
    17   13   14 ar
    18   15   16 1 
    19   17   11 1 
    20   18   11 1 
@<TRIPOS>SUBSTRUCTURE
1 MOL         1
@<TRIPOS>MOLECULE
query molecule
   18    20     1     0     0
SMALL
NO_CHARGE

@<TRIPOS>ATOM
      1 C4         67.9362   53.2181   11.6124 C.ar      1 MOL     0.0725
      2 C5         69.0852   53.3537   10.8293 C.ar      1 MOL     0.0009
      3 C6         70.1601   52.4849   11.0203 C.ar      1 MOL     0.0187
      4 C7         71.1744   50.5984   12.1967 C.2       1 MOL    -0.0112
      5 C8         71.9567   50.6636   13.3118 C.2       1 MOL     0.0163
      6 C10        71.5094   49.5929   11.3678 C.2       1 MOL     0.0538
      7 N12        66.8834   54.0316   11.4311 N.ar      1 MOL    -0.2334
      8 C13        66.8992   55.0047   10.4953 C.ar      1 MOL     0.1153
      9 C15        69.1378   54.3521    9.8564 C.ar      1 MOL     0.0138
     10 C14        68.0290   55.1907    9.6879 C.ar      1 MOL     0.0445
     11 N16        65.8409   55.8033   10.3575 N.pl3     1 MOL    -0.3432
     12 C3         67.8729   52.2143   12.5778 C.ar      1 MOL     0.0295
     13 C2         68.9519   51.3488   12.7738 C.ar      1 MOL     0.0108
     14 C1         70.1098   51.4862   12.0068 C.ar      1 MOL    -0.0171
     15 C11        72.9514   49.7726   13.4479 C.2       1 MOL     0.0459
     16 S9         72.8442   48.8071   12.0852 S.3       1 MOL    -0.1054
     17 H161       64.9289   55.4071   10.1801 H         1 MOL     0.1442
     18 H162       65.9510   56.8046   10.4306 H         1 MOL     0.1442
@<TRIPOS>BOND
     1    2    1 ar
     2    1    7 ar
     3    1   12 ar
     4    3    2 ar
     5    2    9 ar
     6   14    3 ar
     7    4    5 1 
     8    4    6 2 
     9    4   14 1 
    10    5   15 2 
    11    6   16 1 
    12    7    8 ar
    13    8   10 ar
    14    8   11 1 
    15    9   10 ar
    16   12   13 ar
    17   13   14 ar
    18   15   16 1 
    19   17   11 1 
    20   18   11 1 
@<TRIPOS>SUBSTRUCTURE
1 MOL         1
@<TRIPOS>MOLECULE
query molecule
   18    20     1     0     0
SMALL
NO_CHARGE

@<TRIPOS>ATOM
      1 C4         72.5559   42.6308    5.8765 C.ar      1 MOL     0.0725
      2 C5         73.3542   41.9109    6.7689 C.ar      1 MOL     0.0009
      3 C6         74.7412   42.0567    6.7300 C.ar      1 MOL     0.0187
      4 C7         76.7367   43.0717    5.7506 C.2       1 MOL    -0.0112
      5 C8         77.3263   44.1921    6.2574 C.2       1 MOL     0.0163
      6 C10        77.6185   42.1724    5.2771 C.2       1 MOL     0.0538
      7 N12        71.2181   42.5194    5.9106 N.ar      1 MOL    -0.2334
      8 C13        70.6019   41.7108    6.7990 C.ar      1 MOL     0.1153
      9 C15        72.7508   41.0619    7.6969 C.ar      1 MOL     0.0138
     10 C14        71.3543   40.9594    7.7112 C.ar      1 MOL     0.0445
     11 N16        69.2725   41.6140    6.7898 N.pl3     1 MOL    -0.3432
     12 C3         73.1523   43.4903    4.9550 C.ar      1 MOL     0.0295
     13 C2         74.5416   43.6310    4.9115 C.ar      1 MOL     0.0108
     14 C1         75.3482   42.9044    5.7887 C.ar      1 MOL    -0.0171
     15 C11        78.6644   44.2876    6.2102 C.2       1 MOL     0.0459
     16 S9         79.1660   42.8572    5.5010 S.3       1 MOL    -0.1054
     17 H161       68.7258   42.2241    6.1990 H         1 MOL     0.1442
     18 H162       68.8119   40.9306    7.3736 H         1 MOL     0.1442
@<TRIPOS>BOND
     1    2    1 ar
     2    1    7 ar
     3    1   12 ar
     4    3    2 ar
     5    2    9 ar
     6   14    3 ar
     7    4    5 1 
     8    4    6 2 
     9    4   14 1 
    10    5   15 2 
    11    6   16 1 
    12    7    8 ar
    13    8   10 ar
    14    8   11 1 
    15    9   10 ar
    16   12   13 ar
    17   13   14 ar
    18   15   16 1 
    19   17   11 1 
    20   18   11 1 
@<TRIPOS>SUBSTRUCTURE
1 MOL         1
@<TRIPOS>MOLECULE
query molecule
   18    20     1     0     0
SMALL
NO_CHARGE

@<TRIPOS>ATOM
      1 C4         74.7406   46.7316    8.1839 C.ar      1 MOL     0.0725
      2 C5         75.3738   45.4936    8.3194 C.ar      1 MOL     0.0009
      3 C6         76.4860   45.3721    9.1529 C.ar      1 MOL     0.0187
      4 C7         78.0960   46.3736   10.6945 C.2       1 MOL    -0.0112
      5 C8         78.0665   45.5527   11.7831 C.2       1 MOL     0.0163
      6 C10        79.2784   46.9929   10.5251 C.2       1 MOL     0.0538
      7 N12        73.6571   46.8652    7.4020 N.ar      1 MOL    -0.2334
      8 C13        73.1473   45.8168    6.7211 C.ar      1 MOL     0.1153
      9 C15        74.8767   44.3899    7.6259 C.ar      1 MOL     0.0138
     10 C14        73.7478   44.5543    6.8138 C.ar      1 MOL     0.0445
     11 N16        72.0807   45.9935    5.9414 N.pl3     1 MOL    -0.3432
     12 C3         75.2252   47.8355    8.8841 C.ar      1 MOL     0.0295
     13 C2         76.3432   47.7153    9.7132 C.ar      1 MOL     0.0108
     14 C1         76.9915   46.4862    9.8431 C.ar      1 MOL    -0.0171
     15 C11        79.1635   45.4712   12.5523 C.2       1 MOL     0.0459
     16 S9         80.2738   46.4829   11.8146 S.3       1 MOL    -0.1054
     17 H161       71.2006   45.5617    6.1842 H         1 MOL     0.1442
     18 H162       72.1526   46.5593    5.1079 H         1 MOL     0.1442
@<TRIPOS>BOND
     1    2    1 ar
     2    1    7 ar
     3    1   12 ar
     4    3    2 ar
     5    2    9 ar
     6   14    3 ar
     7    4    5 1 
     8    4    6 2 
     9    4   14 1 
    10    5   15 2 
    11    6   16 1 
    12    7    8 ar
    13    8   10 ar
    14    8   11 1 
    15    9   10 ar
    16   12   13 ar
    17   13   14 ar
    18   15   16 1 
    19   17   11 1 
    20   18   11 1 
@<TRIPOS>SUBSTRUCTURE
1 MOL         1
@<TRIPOS>MOLECULE
query molecule
   18    20     1     0     0
SMALL
NO_CHARGE

@<TRIPOS>ATOM
      1 C4         78.8444   42.5472    5.6547 C.ar      1 MOL     0.0725
      2 C5         78.6265   41.9222    6.8850 C.ar      1 MOL     0.0009
      3 C6         78.6105   42.6823    8.0548 C.ar      1 MOL     0.0187
      4 C7         78.8019   44.8443    9.1776 C.2       1 MOL    -0.0112
      5 C8         77.6453   45.0199    9.8784 C.2       1 MOL     0.0163
      6 C10        79.8657   45.4415    9.7453 C.2       1 MOL     0.0538
      7 N12        78.8444   41.8364    4.5154 N.ar      1 MOL    -0.2334
      8 C13        78.6391   40.5020    4.5187 C.ar      1 MOL     0.1153
      9 C15        78.4162   40.5436    6.9258 C.ar      1 MOL     0.0138
     10 C14        78.4240   39.8229    5.7252 C.ar      1 MOL     0.0445
     11 N16        78.6638   39.8288    3.3686 N.pl3     1 MOL    -0.3432
     12 C3         79.0429   43.9263    5.6061 C.ar      1 MOL     0.0295
     13 C2         79.0337   44.6865    6.7783 C.ar      1 MOL     0.0108
     14 C1         78.8320   44.0688    8.0135 C.ar      1 MOL    -0.0171
     15 C11        77.6822   45.7585   10.9985 C.2       1 MOL     0.0459
     16 S9         79.2843   46.2180   11.1499 S.3       1 MOL    -0.1054
     17 H161       79.1946   40.1847    2.5864 H         1 MOL     0.1442
     18 H162       78.1517   38.9629    3.2791 H         1 MOL     0.1442
@<TRIPOS>BOND
     1    2    1 ar
     2    1    7 ar
     3    1   12 ar
     4    3    2 ar
     5    2    9 ar
     6   14    3 ar
     7    4    5 1 
     8    4    6 2 
     9    4   14 1 
    10    5   15 2 
    11    6   16 1 
    12    7    8 ar
    13    8   10 ar
    14    8   11 1 
    15    9   10 ar
    16   12   13 ar
    17   13   14 ar
    18   15   16 1 
    19   17   11 1 
    20   18   11 1 
@<TRIPOS>SUBSTRUCTURE
1 MOL         1
@<TRIPOS>MOLECULE
query molecule
   18    20     1     0     0
SMALL
NO_CHARGE

@<TRIPOS>ATOM
      1 C4         65.4684   46.1617   18.7995 C.ar      1 MOL     0.0725
      2 C5         65.2031   47.0355   19.8569 C.ar      1 MOL     0.0009
      3 C6         64.7006   48.3099   19.5928 C.ar      1 MOL     0.0187
      4 C7         63.9580   50.0039   17.9957 C.2       1 MOL    -0.0112
      5 C8         63.1673   50.6543   18.8965 C.2       1 MOL     0.0163
      6 C10        64.2021   50.7214   16.8839 C.2       1 MOL     0.0538
      7 N12        65.9340   44.9241   19.0336 N.ar      1 MOL    -0.2334
      8 C13        66.1642   44.4848   20.2893 C.ar      1 MOL     0.1153
      9 C15        65.4346   46.6162   21.1672 C.ar      1 MOL     0.0138
     10 C14        65.9236   45.3224   21.3864 C.ar      1 MOL     0.0445
     11 N16        66.6431   43.2556   20.4797 N.pl3     1 MOL    -0.3432
     12 C3         65.2274   46.5706   17.4886 C.ar      1 MOL     0.0295
     13 C2         64.7308   47.8492   17.2238 C.ar      1 MOL     0.0108
     14 C1         64.4771   48.7345   18.2726 C.ar      1 MOL    -0.0171
     15 C11        62.7145   51.8784   18.5831 C.2       1 MOL     0.0459
     16 S9         63.3622   52.1954   17.0729 S.3       1 MOL    -0.1054
     17 H161       67.0576   42.7502   19.7098 H         1 MOL     0.1442
     18 H162       66.5915   42.8295   21.3940 H         1 MOL     0.1442
@<TRIPOS>BOND
     1    2    1 ar
     2    1    7 ar
     3    1   12 ar
     4    3    2 ar
     5    2    9 ar
     6   14    3 ar
     7    4    5 1 
     8    4    6 2 
     9    4   14 1 
    10    5   15 2 
    11    6   16 1 
    12    7    8 ar
    13    8   10 ar
    14    8   11 1 
    15    9   10 ar
    16   12   13 ar
    17   13   14 ar
    18   15   16 1 
    19   17   11 1 
    20   18   11 1 
@<TRIPOS>SUBSTRUCTURE
1 MOL         1
@<TRIPOS>MOLECULE
query molecule
   18    20     1     0     0
SMALL
NO_CHARGE

@<TRIPOS>ATOM
      1 C4         71.2991   43.6925    6.4131 C.ar      1 MOL     0.0725
      2 C5         70.6288   44.4199    7.3997 C.ar      1 MOL     0.0009
      3 C6         71.0206   45.7289    7.6816 C.ar      1 MOL     0.0187
      4 C7         72.4886   47.6366    7.2608 C.2       1 MOL    -0.0112
      5 C8         73.3200   47.9317    8.3007 C.2       1 MOL     0.0163
      6 C10        72.1489   48.7123    6.5273 C.2       1 MOL     0.0538
      7 N12        70.9250   42.4381    6.1133 N.ar      1 MOL    -0.2334
      8 C13        69.8980   41.8385    6.7525 C.ar      1 MOL     0.1153
      9 C15        69.5662   43.8291    8.0840 C.ar      1 MOL     0.0138
     10 C14        69.1963   42.5189    7.7565 C.ar      1 MOL     0.0445
     11 N16        69.5680   40.5859    6.4385 N.pl3     1 MOL    -0.3432
     12 C3         72.3538   44.2817    5.7172 C.ar      1 MOL     0.0295
     13 C2         72.7506   45.5901    6.0044 C.ar      1 MOL     0.0108
     14 C1         72.0969   46.3193    6.9988 C.ar      1 MOL    -0.0171
     15 C11        73.6768   49.2117    8.4907 C.2       1 MOL     0.0459
     16 S9         72.9182   50.0501    7.2569 S.3       1 MOL    -0.1054
     17 H161       68.9622   40.4056    5.6507 H         1 MOL     0.1442
     18 H162       69.9236   39.8170    6.9883 H         1 MOL     0.1442
@<TRIPOS>BOND
     1    2    1 ar
     2    1    7 ar
     3    1   12 ar
     4    3    2 ar
     5    2    9 ar
     6   14    3 ar
     7    4    5 1 
     8    4    6 2 
     9    4   14 1 
    10    5   15 2 
    11    6   16 1 
    12    7    8 ar
    13    8   10 ar
    14    8   11 1 
    15    9   10 ar
    16   12   13 ar
    17   13   14 ar
    18   15   16 1 
    19   17   11 1 
    20   18   11 1 
@<TRIPOS>SUBSTRUCTURE
1 MOL         1
@<TRIPOS>MOLECULE
query molecule
   18    20     1     0     0
SMALL
NO_CHARGE

@<TRIPOS>ATOM
      1 C4         62.5140   46.6266   10.7544 C.ar      1 MOL     0.0725
      2 C5         63.1762   47.7199   11.3185 C.ar      1 MOL     0.0009
      3 C6         64.1682   48.3790   10.5918 C.ar      1 MOL     0.0187
      4 C7         65.5066   48.6060    8.5599 C.2       1 MOL    -0.0112
      5 C8         66.1374   49.7115    9.0496 C.2       1 MOL     0.0163
      6 C10        65.9589   48.2250    7.3513 C.2       1 MOL     0.0538
      7 N12        61.5430   45.9907   11.4297 N.ar      1 MOL    -0.2334
      8 C13        61.1774   46.3799   12.6697 C.ar      1 MOL     0.1153
      9 C15        62.8274   48.1458   12.6004 C.ar      1 MOL     0.0138
     10 C14        61.8142   47.4650   13.2864 C.ar      1 MOL     0.0445
     11 N16        60.2209   45.7122   13.3145 N.pl3     1 MOL    -0.3432
     12 C3         62.8495   46.2040    9.4689 C.ar      1 MOL     0.0295
     13 C2         63.8477   46.8598    8.7440 C.ar      1 MOL     0.0108
     14 C1         64.5253   47.9433    9.3050 C.ar      1 MOL    -0.0171
     15 C11        67.0844   50.2933    8.2969 C.2       1 MOL     0.0459
     16 S9         67.1662   49.3508    6.9165 S.3       1 MOL    -0.1054
     17 H161       60.4638   44.9428   13.9220 H         1 MOL     0.1442
     18 H162       59.2532   45.9756   13.1956 H         1 MOL     0.1442
@<TRIPOS>BOND
     1    2    1 ar
     2    1    7 ar
     3    1   12 ar
     4    3    2 ar
     5    2    9 ar
     6   14    3 ar
     7    4    5 1 
     8    4    6 2 
     9    4   14 1 
    10    5   15 2 
    11    6   16 1 
    12    7    8 ar
    13    8   10 ar
    14    8   11 1 
    15    9   10 ar
    16   12   13 ar
    17   13   14 ar
    18   15   16 1 
    19   17   11 1 
    20   18   11 1 
@<TRIPOS>SUBSTRUCTURE
1 MOL         1
@<TRIPOS>MOLECULE
query molecule
   18    20     1     0     0
SMALL
NO_CHARGE

@<TRIPOS>ATOM
      1 C4         74.5345   40.3041   19.2932 C.ar      1 MOL     0.0725
      2 C5         73.8086   41.2659   18.5863 C.ar      1 MOL     0.0009
      3 C6         72.4988   41.5617   18.9650 C.ar      1 MOL     0.0187
      4 C7         70.5848   41.1875   20.4375 C.2       1 MOL    -0.0112
      5 C8         69.5590   40.3205   20.2017 C.2       1 MOL     0.0163
      6 C10        70.2081   42.2894   21.1116 C.2       1 MOL     0.0538
      7 N12        75.8028   40.0187   18.9568 N.ar      1 MOL    -0.2334
      8 C13        76.4157   40.6437   17.9289 C.ar      1 MOL     0.1153
      9 C15        74.4092   41.9275   17.5149 C.ar      1 MOL     0.0138
     10 C14        75.7316   41.6108   17.1806 C.ar      1 MOL     0.0445
     11 N16        77.6701   40.3203   17.6150 N.pl3     1 MOL    -0.3432
     12 C3         73.9439   39.6484   20.3725 C.ar      1 MOL     0.0295
     13 C2         72.6299   39.9397   20.7474 C.ar      1 MOL     0.0108
     14 C1         71.8917   40.8880   20.0377 C.ar      1 MOL    -0.0171
     15 C11        68.3299   40.6538   20.6260 C.2       1 MOL     0.0459
     16 S9         68.5285   42.1368   21.3755 S.3       1 MOL    -0.1054
     17 H161       78.0439   40.5675   16.7098 H         1 MOL     0.1442
     18 H162       78.2468   39.8281   18.2822 H         1 MOL     0.1442
@<TRIPOS>BOND
     1    2    1 ar
     2    1    7 ar
     3    1   12 ar
     4    3    2 ar
     5    2    9 ar
     6   14    3 ar
     7    4    5 1 
     8    4    6 2 
     9    4   14 1 
    10    5   15 2 
    11    6   16 1 
    12    7    8 ar
    13    8   10 ar
    14    8   11 1 
    15    9   10 ar
    16   12   13 ar
    17   13   14 ar
    18   15   16 1 
    19   17   11 1 
    20   18   11 1 
@<TRIPOS>SUBSTRUCTURE
1 MOL         1
@<TRIPOS>MOLECULE
query molecule
   18    20     1     0     0
SMALL
NO_CHARGE

@<TRIPOS>ATOM
      1 C4         72.6665   45.5060    4.3746 C.ar      1 MOL     0.0725
      2 C5         73.5060   45.5058    5.4913 C.ar      1 MOL     0.0009
      3 C6         74.6653   46.2820    5.4865 C.ar      1 MOL     0.0187
      4 C7         76.1620   47.8449    4.3514 C.2       1 MOL    -0.0112
      5 C8         77.3196   47.4026    3.7822 C.2       1 MOL     0.0163
      6 C10        76.2494   49.0979    4.8340 C.2       1 MOL     0.0538
      7 N12        71.5362   44.7810    4.3668 N.ar      1 MOL    -0.2334
      8 C13        71.1756   44.0287    5.4282 C.ar      1 MOL     0.1153
      9 C15        73.1665   44.7355    6.6039 C.ar      1 MOL     0.0138
     10 C14        71.9848   43.9850    6.5712 C.ar      1 MOL     0.0445
     11 N16        70.0548   43.3092    5.3754 N.pl3     1 MOL    -0.3432
     12 C3         72.9939   46.2835    3.2646 C.ar      1 MOL     0.0295
     13 C2         74.1584   47.0553    3.2571 C.ar      1 MOL     0.0108
     14 C1         75.0110   47.0496    4.3621 C.ar      1 MOL    -0.0171
     15 C11        78.3858   48.2181    3.7851 C.2       1 MOL     0.0459
     16 S9         77.8490   49.6140    4.5360 S.3       1 MOL    -0.1054
     17 H161       69.1771   43.7199    5.6601 H         1 MOL     0.1442
     18 H162       70.0832   42.3533    5.0505 H         1 MOL     0.1442
@<TRIPOS>BOND
     1    2    1 ar
     2    1    7 ar
     3    1   12 ar
     4    3    2 ar
     5    2    9 ar
     6   14    3 ar
     7    4    5 1 
     8    4    6 2 
     9    4   14 1 
    10    5   15 2 
    11    6   16 1 
    12    7    8 ar
    13    8   10 ar
    14    8   11 1 
    15    9   10 ar
    16   12   13 ar
    17   13   14 ar
    18   15   16 1 
    19   17   11 1 
    20   18   11 1 
@<TRIPOS>SUBSTRUCTURE
1 MOL         1
@<TRIPOS>MOLECULE
query molecule
   18    20     1     0     0
SMALL
NO_CHARGE

@<TRIPOS>ATOM
      1 C4         73.2080   41.7361   20.3568 C.ar      1 MOL     0.0725
      2 C5         72.7560   40.4146   20.3213 C.ar      1 MOL     0.0009
      3 C6         71.3924   40.1456   20.4424 C.ar      1 MOL     0.0187
      4 C7         69.0963   40.9321   20.7268 C.2       1 MOL    -0.0112
      5 C8         68.2607   41.8119   21.3493 C.2       1 MOL     0.0163
      6 C10        68.4594   39.8645   20.2118 C.2       1 MOL     0.0538
      7 N12        74.5142   42.0174   20.2226 N.ar      1 MOL    -0.2334
      8 C13        75.4305   41.0404   20.0538 C.ar      1 MOL     0.1153
      9 C15        73.6763   39.3797   20.1537 C.ar      1 MOL     0.0138
     10 C14        75.0335   39.6972   20.0193 C.ar      1 MOL     0.0445
     11 N16        76.7200   41.3589   19.9417 N.pl3     1 MOL    -0.3432
     12 C3         72.2918   42.7755   20.5116 C.ar      1 MOL     0.0295
     13 C2         70.9271   42.5056   20.6398 C.ar      1 MOL     0.0108
     14 C1         70.4677   41.1879   20.6209 C.ar      1 MOL    -0.0171
     15 C11        66.9513   41.5216   21.4027 C.2       1 MOL     0.0459
     16 S9         66.8077   40.0635   20.5941 S.3       1 MOL    -0.1054
     17 H161       77.4263   40.6417   20.0240 H         1 MOL     0.1442
     18 H162       76.9907   42.3174   19.7743 H         1 MOL     0.1442
@<TRIPOS>BOND
     1    2    1 ar
     2    1    7 ar
     3    1   12 ar
     4    3    2 ar
     5    2    9 ar
     6   14    3 ar
     7    4    5 1 
     8    4    6 2 
     9    4   14 1 
    10    5   15 2 
    11    6   16 1 
    12    7    8 ar
    13    8   10 ar
    14    8   11 1 
    15    9   10 ar
    16   12   13 ar
    17   13   14 ar
    18   15   16 1 
    19   17   11 1 
    20   18   11 1 
@<TRIPOS>SUBSTRUCTURE
1 MOL         1
@<TRIPOS>MOLECULE
query molecule
   18    20     1     0     0
SMALL
NO_CHARGE

@<TRIPOS>ATOM
      1 C4         76.4780   41.7751   12.9560 C.ar      1 MOL     0.0725
      2 C5         77.5820   42.1772   13.7120 C.ar      1 MOL     0.0009
      3 C6         77.5628   42.0283   15.0991 C.ar      1 MOL     0.0187
      4 C7         76.4116   41.3276   17.1375 C.2       1 MOL    -0.0112
      5 C8         77.4083   40.6582   17.7842 C.2       1 MOL     0.0163
      6 C10        75.4740   41.8204   17.9673 C.2       1 MOL     0.0538
      7 N12        76.4843   41.8920   11.6183 N.ar      1 MOL    -0.2334
      8 C13        77.5480   42.4019   10.9616 C.ar      1 MOL     0.1153
      9 C15        78.6963   42.7134   13.0663 C.ar      1 MOL     0.0138
     10 C14        78.6784   42.8287   11.6709 C.ar      1 MOL     0.0445
     11 N16        77.5091   42.5178    9.6343 N.pl3     1 MOL    -0.3432
     12 C3         75.3664   41.2269   13.5944 C.ar      1 MOL     0.0295
     13 C2         75.3445   41.0843   14.9840 C.ar      1 MOL     0.0108
     14 C1         76.4364   41.4972   15.7490 C.ar      1 MOL    -0.0171
     15 C11        77.3399   40.5442   19.1199 C.2       1 MOL     0.0459
     16 S9         75.9398   41.3574   19.5430 S.3       1 MOL    -0.1054
     17 H161       76.9031   43.2021    9.2047 H         1 MOL     0.1442
     18 H162       78.0856   41.9213    9.0582 H         1 MOL     0.1442
@<TRIPOS>BOND
     1    2    1 ar
     2    1    7 ar
     3    1   12 ar
     4    3    2 ar
     5    2    9 ar
     6   14    3 ar
     7    4    5 1 
     8    4    6 2 
     9    4   14 1 
    10    5   15 2 
    11    6   16 1 
    12    7    8 ar
    13    8   10 ar
    14    8   11 1 
    15    9   10 ar
    16   12   13 ar
    17   13   14 ar
    18   15   16 1 
    19   17   11 1 
    20   18   11 1 
@<TRIPOS>SUBSTRUCTURE
1 MOL         1
@<TRIPOS>MOLECULE
query molecule
   18    20     1     0     0
SMALL
NO_CHARGE

@<TRIPOS>ATOM
      1 C4         67.4200   46.5917    8.1344 C.ar      1 MOL     0.0725
      2 C5         68.1233   47.7980    8.0875 C.ar      1 MOL     0.0009
      3 C6         67.5838   48.9379    8.6841 C.ar      1 MOL     0.0187
      4 C7         65.7855   50.0253    9.9312 C.2       1 MOL    -0.0112
      5 C8         64.5015   50.4136    9.6857 C.2       1 MOL     0.0163
      6 C10        66.4148   50.8019   10.8319 C.2       1 MOL     0.0538
      7 N12        67.9307   45.4788    7.5832 N.ar      1 MOL    -0.2334
      8 C13        69.1311   45.4868    6.9655 C.ar      1 MOL     0.1153
      9 C15        69.3645   47.8434    7.4523 C.ar      1 MOL     0.0138
     10 C14        69.8752   46.6710    6.8818 C.ar      1 MOL     0.0445
     11 N16        69.5963   44.3653    6.4153 N.pl3     1 MOL    -0.3432
     12 C3         66.1847   46.5370    8.7786 C.ar      1 MOL     0.0295
     13 C2         65.6414   47.6802    9.3700 C.ar      1 MOL     0.0108
     14 C1         66.3295   48.8932    9.3149 C.ar      1 MOL    -0.0171
     15 C11        64.0285   51.4971   10.3213 C.2       1 MOL     0.0459
     16 S9         65.2966   52.0090   11.2860 S.3       1 MOL    -0.1054
     17 H161       70.3083   44.4111    5.7004 H         1 MOL     0.1442
     18 H162       69.2368   43.4698    6.7133 H         1 MOL     0.1442
@<TRIPOS>BOND
     1    2    1 ar
     2    1    7 ar
     3    1   12 ar
     4    3    2 ar
     5    2    9 ar
     6   14    3 ar
     7    4    5 1 
     8    4    6 2 
     9    4   14 1 
    10    5   15 2 
    11    6   16 1 
    12    7    8 ar
    13    8   10 ar
    14    8   11 1 
    15    9   10 ar
    16   12   13 ar
    17   13   14 ar
    18   15   16 1 
    19   17   11 1 
    20   18   11 1 
@<TRIPOS>SUBSTRUCTURE
1 MOL         1
@<TRIPOS>MOLECULE
query molecule
   18    20     1     0     0
SMALL
NO_CHARGE

@<TRIPOS>ATOM
      1 C4         63.6538   43.3044   15.2049 C.ar      1 MOL     0.0725
      2 C5         64.0184   41.9713   15.0005 C.ar      1 MOL     0.0009
      3 C6         65.1068   41.6686   14.1818 C.ar      1 MOL     0.0187
      4 C7         66.9333   42.3991   12.7320 C.2       1 MOL    -0.0112
      5 C8         66.8329   42.4127   11.3721 C.2       1 MOL     0.0163
      6 C10        68.1763   42.1324   13.1727 C.2       1 MOL     0.0538
      7 N12        62.6214   43.6176   16.0045 N.ar      1 MOL    -0.2334
      8 C13        61.9022   42.6625   16.6316 C.ar      1 MOL     0.1153
      9 C15        63.2935   40.9583   15.6288 C.ar      1 MOL     0.0138
     10 C14        62.2190   41.3091   16.4554 C.ar      1 MOL     0.0445
     11 N16        60.8737   43.0127   17.4036 N.pl3     1 MOL    -0.3432
     12 C3         64.3819   44.3217   14.5896 C.ar      1 MOL     0.0295
     13 C2         65.4676   44.0182   13.7643 C.ar      1 MOL     0.0108
     14 C1         65.8299   42.6889   13.5419 C.ar      1 MOL    -0.0171
     15 C11        67.9306   42.1456   10.6473 C.2       1 MOL     0.0459
     16 S9         69.1349   41.8911   11.7811 S.3       1 MOL    -0.1054
     17 H161       60.2270   42.3101   17.7327 H         1 MOL     0.1442
     18 H162       60.7409   43.9807   17.6596 H         1 MOL     0.1442
@<TRIPOS>BOND
     1    2    1 ar
     2    1    7 ar
     3    1   12 ar
     4    3    2 ar
     5    2    9 ar
     6   14    3 ar
     7    4    5 1 
     8    4    6 2 
     9    4   14 1 
    10    5   15 2 
    11    6   16 1 
    12    7    8 ar
    13    8   10 ar
    14    8   11 1 
    15    9   10 ar
    16   12   13 ar
    17   13   14 ar
    18   15   16 1 
    19   17   11 1 
    20   18   11 1 
@<TRIPOS>SUBSTRUCTURE
1 MOL         1
@<TRIPOS>MOLECULE
query molecule
   18    20     1     0     0
SMALL
NO_CHARGE

@<TRIPOS>ATOM
      1 C4         72.8301   47.0868    1.7662 C.ar      1 MOL     0.0725
      2 C5         72.7512   46.5174    3.0396 C.ar      1 MOL     0.0009
      3 C6         72.8446   47.3310    4.1691 C.ar      1 MOL     0.0187
      4 C7         73.1169   49.5449    5.1670 C.2       1 MOL    -0.0112
      5 C8         74.3198   49.9781    5.6413 C.2       1 MOL     0.0163
      6 C10        72.0664   50.0298    5.8540 C.2       1 MOL     0.0538
      7 N12        72.7231   46.3237    0.6665 N.ar      1 MOL    -0.2334
      8 C13        72.5408   44.9887    0.7515 C.ar      1 MOL     0.1153
      9 C15        72.5685   45.1399    3.1644 C.ar      1 MOL     0.0138
     10 C14        72.4630   44.3642    2.0033 C.ar      1 MOL     0.0445
     11 N16        72.4566   44.2630   -0.3633 N.pl3     1 MOL    -0.3432
     12 C3         73.0002   48.4643    1.6350 C.ar      1 MOL     0.0295
     13 C2         73.1007   49.2781    2.7661 C.ar      1 MOL     0.0108
     14 C1         73.0384   48.7165    4.0423 C.ar      1 MOL    -0.0171
     15 C11        74.3310   50.7871    6.7124 C.2       1 MOL     0.0459
     16 S9         72.7165   51.0045    7.0954 S.3       1 MOL    -0.1054
     17 H161       71.8067   44.5272   -1.0900 H         1 MOL     0.1442
     18 H162       73.0427   43.4491   -0.4816 H         1 MOL     0.1442
@<TRIPOS>BOND
     1    2    1 ar
     2    1    7 ar
     3    1   12 ar
     4    3    2 ar
     5    2    9 ar
     6   14    3 ar
     7    4    5 1 
     8    4    6 2 
     9    4   14 1 
    10    5   15 2 
    11    6   16 1 
    12    7    8 ar
    13    8   10 ar
    14    8   11 1 
    15    9   10 ar
    16   12   13 ar
    17   13   14 ar
    18   15   16 1 
    19   17   11 1 
    20   18   11 1 
@<TRIPOS>SUBSTRUCTURE
1 MOL         1
@<TRIPOS>MOLECULE
query molecule
   18    20     1     0     0
SMALL
NO_CHARGE

@<TRIPOS>ATOM
      1 C4         73.2942   40.4805   10.0246 C.ar      1 MOL     0.0725
      2 C5         73.7285   41.7358    9.5916 C.ar      1 MOL     0.0009
      3 C6         74.9681   42.2216   10.0087 C.ar      1 MOL     0.0187
      4 C7         77.0301   41.9407   11.2895 C.2       1 MOL    -0.0112
      5 C8         77.2909   42.1939   12.6039 C.2       1 MOL     0.0163
      6 C10        78.0906   42.1431   10.4864 C.2       1 MOL     0.0538
      7 N12        72.1131   39.9866    9.6192 N.ar      1 MOL    -0.2334
      8 C13        71.3077   40.6819    8.7881 C.ar      1 MOL     0.1153
      9 C15        72.9189   42.4838    8.7364 C.ar      1 MOL     0.0138
     10 C14        71.6900   41.9496    8.3299 C.ar      1 MOL     0.0445
     11 N16        70.1349   40.1650    8.4221 N.pl3     1 MOL    -0.3432
     12 C3         74.1042   39.7229   10.8693 C.ar      1 MOL     0.0295
     13 C2         75.3424   40.2124   11.2925 C.ar      1 MOL     0.0108
     14 C1         75.7780   41.4718   10.8775 C.ar      1 MOL    -0.0171
     15 C11        78.5170   42.6237   12.9412 C.2       1 MOL     0.0459
     16 S9         79.3595   42.6763   11.4962 S.3       1 MOL    -0.1054
     17 H161       70.0101   39.8096    7.4849 H         1 MOL     0.1442
     18 H162       69.3711   40.1286    9.0818 H         1 MOL     0.1442
@<TRIPOS>BOND
     1    2    1 ar
     2    1    7 ar
     3    1   12 ar
     4    3    2 ar
     5    2    9 ar
     6   14    3 ar
     7    4    5 1 
     8    4    6 2 
     9    4   14 1 
    10    5   15 2 
    11    6   16 1 
    12    7    8 ar
    13    8   10 ar
    14    8   11 1 
    15    9   10 ar
    16   12   13 ar
    17   13   14 ar
    18   15   16 1 
    19   17   11 1 
    20   18   11 1 
@<TRIPOS>SUBSTRUCTURE
1 MOL         1
@<TRIPOS>MOLECULE
query molecule
   18    20     1     0     0
SMALL
NO_CHARGE

@<TRIPOS>ATOM
      1 C4         66.1883   50.3386    9.7294 C.ar      1 MOL     0.0725
      2 C5         65.8458   49.3335   10.6374 C.ar      1 MOL     0.0009
      3 C6         65.4561   48.0790   10.1674 C.ar      1 MOL     0.0187
      4 C7         65.0101   46.5605    8.3055 C.2       1 MOL    -0.0112
      5 C8         63.7113   46.2795    7.9989 C.2       1 MOL     0.0163
      6 C10        65.8509   45.5412    8.0517 C.2       1 MOL     0.0538
      7 N12        66.5845   51.5466   10.1617 N.ar      1 MOL    -0.2334
      8 C13        66.6618   51.8319   11.4791 C.ar      1 MOL     0.1153
      9 C15        65.9092   49.5956   12.0062 C.ar      1 MOL     0.0138
     10 C14        66.3219   50.8638   12.4331 C.ar      1 MOL     0.0445
     11 N16        67.0429   53.0484   11.8684 N.pl3     1 MOL    -0.3432
     12 C3         66.1389   50.0789    8.3606 C.ar      1 MOL     0.0295
     13 C2         65.7420   48.8248    7.8899 C.ar      1 MOL     0.0108
     14 C1         65.3834   47.8193    8.7889 C.ar      1 MOL    -0.0171
     15 C11        63.4167   45.0604    7.5205 C.2       1 MOL     0.0459
     16 S9         64.8883   44.2666    7.4495 S.3       1 MOL    -0.1054
     17 H161       68.0193   53.2406   12.0412 H         1 MOL     0.1442
     18 H162       66.3554   53.7781   11.9905 H         1 MOL     0.1442
@<TRIPOS>BOND
     1    2    1 ar
     2    1    7 ar
     3    1   12 ar
     4    3    2 ar
     5    2    9 ar
     6   14    3 ar
     7    4    5 1 
     8    4    6 2 
     9    4   14 1 
    10    5   15 2 
    11    6   16 1 
    12    7    8 ar
    13    8   10 ar
    14    8   11 1 
    15    9   10 ar
    16   12   13 ar
    17   13   14 ar
    18   15   16 1 
    19   17   11 1 
    20   18   11 1 
@<TRIPOS>SUBSTRUCTURE
1 MOL         1
@<TRIPOS>MOLECULE
query molecule
   18    20     1     0     0
SMALL
NO_CHARGE

@<TRIPOS>ATOM
      1 C4         72.4639   48.2881    4.3420 C.ar      1 MOL     0.0725
      2 C5         73.3093   47.3515    4.9421 C.ar      1 MOL     0.0009
      3 C6         73.6025   47.4544    6.3022 C.ar      1 MOL     0.0187
      4 C7         73.3472   48.6071    8.4417 C.2       1 MOL    -0.0112
      5 C8         72.8728   47.6857    9.3281 C.2       1 MOL     0.0163
      6 C10        74.1123   49.5541    9.0146 C.2       1 MOL     0.0538
      7 N12        72.1539   48.1954    3.0387 N.ar      1 MOL    -0.2334
      8 C13        72.6473   47.2036    2.2669 C.ar      1 MOL     0.1153
      9 C15        73.8414   46.3164    4.1728 C.ar      1 MOL     0.0138
     10 C14        73.5065   46.2422    2.8152 C.ar      1 MOL     0.0445
     11 N16        72.3299   47.1557    0.9733 N.pl3     1 MOL    -0.3432
     12 C3         71.9192   49.3176    5.1082 C.ar      1 MOL     0.0295
     13 C2         72.2184   49.4246    6.4686 C.ar      1 MOL     0.0108
     14 C1         73.0739   48.5026    7.0735 C.ar      1 MOL    -0.0171
     15 C11        73.1842   47.8277   10.6260 C.2       1 MOL     0.0459
     16 S9         74.1454   49.1964   10.6834 S.3       1 MOL    -0.1054
     17 H161       71.4498   47.5355    0.6548 H         1 MOL     0.1442
     18 H162       72.9694   46.7397    0.3114 H         1 MOL     0.1442
@<TRIPOS>BOND
     1    2    1 ar
     2    1    7 ar
     3    1   12 ar
     4    3    2 ar
     5    2    9 ar
     6   14    3 ar
     7    4    5 1 
     8    4    6 2 
     9    4   14 1 
    10    5   15 2 
    11    6   16 1 
    12    7    8 ar
    13    8   10 ar
    14    8   11 1 
    15    9   10 ar
    16   12   13 ar
    17   13   14 ar
    18   15   16 1 
    19   17   11 1 
    20   18   11 1 
@<TRIPOS>SUBSTRUCTURE
1 MOL         1
@<TRIPOS>MOLECULE
query molecule
   18    20     1     0     0
SMALL
NO_CHARGE

@<TRIPOS>ATOM
      1 C4         61.4192   54.9238   16.5365 C.ar      1 MOL     0.0725
      2 C5         61.3367   53.7099   17.2232 C.ar      1 MOL     0.0009
      3 C6         62.2144   53.4485   18.2758 C.ar      1 MOL     0.0187
      4 C7         64.0712   54.1407   19.7056 C.2       1 MOL    -0.0112
      5 C8         64.0157   52.9754   20.4119 C.2       1 MOL     0.0163
      6 C10        65.0554   54.9639   20.1108 C.2       1 MOL     0.0538
      7 N12        60.5713   55.2026   15.5333 N.ar      1 MOL    -0.2334
      8 C13        59.6186   54.3249   15.1529 C.ar      1 MOL     0.1153
      9 C15        60.3674   52.7774   16.8529 C.ar      1 MOL     0.0138
     10 C14        59.4965   53.0890   15.8015 C.ar      1 MOL     0.0445
     11 N16        58.8069   54.6312   14.1410 N.pl3     1 MOL    -0.3432
     12 C3         62.3777   55.8648   16.9100 C.ar      1 MOL     0.0295
     13 C2         63.2611   55.6002   17.9595 C.ar      1 MOL     0.0108
     14 C1         63.1963   54.3841   18.6414 C.ar      1 MOL    -0.0171
     15 C11        64.8939   52.7903   21.4100 C.2       1 MOL     0.0459
     16 S9         65.8344   54.1745   21.4084 S.3       1 MOL    -0.1054
     17 H161       58.6105   55.5984   13.9261 H         1 MOL     0.1442
     18 H162       58.3883   53.8963   13.5890 H         1 MOL     0.1442
@<TRIPOS>BOND
     1    2    1 ar
     2    1    7 ar
     3    1   12 ar
     4    3    2 ar
     5    2    9 ar
     6   14    3 ar
     7    4    5 1 
     8    4    6 2 
     9    4   14 1 
    10    5   15 2 
    11    6   16 1 
    12    7    8 ar
    13    8   10 ar
    14    8   11 1 
    15    9   10 ar
    16   12   13 ar
    17   13   14 ar
    18   15   16 1 
    19   17   11 1 
    20   18   11 1 
@<TRIPOS>SUBSTRUCTURE
1 MOL         1
@<TRIPOS>MOLECULE
query molecule
   18    20     1     0     0
SMALL
NO_CHARGE

@<TRIPOS>ATOM
      1 C4         78.0882   45.0855   10.2603 C.ar      1 MOL     0.0725
      2 C5         77.3557   44.2904   11.1452 C.ar      1 MOL     0.0009
      3 C6         77.7929   42.9987   11.4399 C.ar      1 MOL     0.0187
      4 C7         79.4095   41.1908   11.1407 C.2       1 MOL    -0.0112
      5 C8         79.1341   40.1357   10.3218 C.2       1 MOL     0.0163
      6 C10        80.1785   40.8618   12.1947 C.2       1 MOL     0.0538
      7 N12        77.6950   46.3382    9.9784 N.ar      1 MOL    -0.2334
      8 C13        76.5842   46.8684   10.5330 C.ar      1 MOL     0.1153
      9 C15        76.1995   44.8047   11.7324 C.ar      1 MOL     0.0138
     10 C14        75.8073   46.1124   11.4207 C.ar      1 MOL     0.0445
     11 N16        76.2171   48.1096   10.2146 N.pl3     1 MOL    -0.3432
     12 C3         79.2514   44.5815    9.6798 C.ar      1 MOL     0.0295
     13 C2         79.6853   43.2856    9.9696 C.ar      1 MOL     0.0108
     14 C1         78.9519   42.4784   10.8406 C.ar      1 MOL    -0.0171
     15 C11        79.6167   38.9273   10.6517 C.2       1 MOL     0.0459
     16 S9         80.4752   39.1858   12.0647 S.3       1 MOL    -0.1054
     17 H161       75.6574   48.6513   10.8576 H         1 MOL     0.1442
     18 H162       76.4987   48.5085    9.3305 H         1 MOL     0.1442
@<TRIPOS>BOND
     1    2    1 ar
     2    1    7 ar
     3    1   12 ar
     4    3    2 ar
     5    2    9 ar
     6   14    3 ar
     7    4    5 1 
     8    4    6 2 
     9    4   14 1 
    10    5   15 2 
    11    6   16 1 
    12    7    8 ar
    13    8   10 ar
    14    8   11 1 
    15    9   10 ar
    16   12   13 ar
    17   13   14 ar
    18   15   16 1 
    19   17   11 1 
    20   18   11 1 
@<TRIPOS>SUBSTRUCTURE
1 MOL         1
@<TRIPOS>MOLECULE
query molecule
   18    20     1     0     0
SMALL
NO_CHARGE

@<TRIPOS>ATOM
      1 C4         68.7786   48.9502    7.2677 C.ar      1 MOL     0.0725
      2 C5         69.2657   47.7065    7.6778 C.ar      1 MOL     0.0009
      3 C6         70.6199   47.5580    7.9785 C.ar      1 MOL     0.0187
      4 C7         72.8632   48.5083    8.1682 C.2       1 MOL    -0.0112
      5 C8         73.8249   48.6334    7.2093 C.2       1 MOL     0.0163
      6 C10        73.3621   48.3001    9.4003 C.2       1 MOL     0.0538
      7 N12        67.4752   49.1188    6.9924 N.ar      1 MOL    -0.2334
      8 C13        66.5963   48.0993    7.0975 C.ar      1 MOL     0.1153
      9 C15        68.3861   46.6297    7.7920 C.ar      1 MOL     0.0138
     10 C14        67.0319   46.8287    7.4962 C.ar      1 MOL     0.0445
     11 N16        65.3133   48.3022    6.7985 N.pl3     1 MOL    -0.3432
     12 C3         69.6504   50.0332    7.1637 C.ar      1 MOL     0.0295
     13 C2         71.0078   49.8826    7.4581 C.ar      1 MOL     0.0108
     14 C1         71.5063   48.6405    7.8537 C.ar      1 MOL    -0.0171
     15 C11        75.1111   48.5158    7.5747 C.2       1 MOL     0.0459
     16 S9         75.0597   48.2559    9.2271 S.3       1 MOL    -0.1054
     17 H161       64.8743   49.1824    7.0282 H         1 MOL     0.1442
     18 H162       64.7801   47.5759    6.3423 H         1 MOL     0.1442
@<TRIPOS>BOND
     1    2    1 ar
     2    1    7 ar
     3    1   12 ar
     4    3    2 ar
     5    2    9 ar
     6   14    3 ar
     7    4    5 1 
     8    4    6 2 
     9    4   14 1 
    10    5   15 2 
    11    6   16 1 
    12    7    8 ar
    13    8   10 ar
    14    8   11 1 
    15    9   10 ar
    16   12   13 ar
    17   13   14 ar
    18   15   16 1 
    19   17   11 1 
    20   18   11 1 
@<TRIPOS>SUBSTRUCTURE
1 MOL         1
@<TRIPOS>MOLECULE
query molecule
   18    20     1     0     0
SMALL
NO_CHARGE

@<TRIPOS>ATOM
      1 C4         70.2136   41.4034    8.1377 C.ar      1 MOL     0.0725
      2 C5         71.5152   41.1986    8.6025 C.ar      1 MOL     0.0009
      3 C6         72.5255   40.8553    7.7037 C.ar      1 MOL     0.0187
      4 C7         73.2537   40.3641    5.4234 C.2       1 MOL    -0.0112
      5 C8         74.1938   41.2795    5.0518 C.2       1 MOL     0.0163
      6 C10        73.4375   39.1537    4.8652 C.2       1 MOL     0.0538
      7 N12        69.2311   41.7533    8.9835 N.ar      1 MOL    -0.2334
      8 C13        69.4634   41.9147   10.3036 C.ar      1 MOL     0.1153
      9 C15        71.7897   41.3517    9.9617 C.ar      1 MOL     0.0138
     10 C14        70.7482   41.7137   10.8250 C.ar      1 MOL     0.0445
     11 N16        68.4580   42.2457   11.1137 N.pl3     1 MOL    -0.3432
     12 C3         69.9356   41.2641    6.7786 C.ar      1 MOL     0.0295
     13 C2         70.9460   40.9135    5.8797 C.ar      1 MOL     0.0108
     14 C1         72.2460   40.6920    6.3368 C.ar      1 MOL    -0.0171
     15 C11        75.1477   40.9010    4.1866 C.2       1 MOL     0.0459
     16 S9         74.8159   39.2920    3.8678 S.3       1 MOL    -0.1054
     17 H161       68.1077   43.1930   11.1228 H         1 MOL     0.1442
     18 H162       68.0465   41.5493   11.7185 H         1 MOL     0.1442
@<TRIPOS>BOND
     1    2    1 ar
     2    1    7 ar
     3    1   12 ar
     4    3    2 ar
     5    2    9 ar
     6   14    3 ar
     7    4    5 1 
     8    4    6 2 
     9    4   14 1 
    10    5   15 2 
    11    6   16 1 
    12    7    8 ar
    13    8   10 ar
    14    8   11 1 
    15    9   10 ar
    16   12   13 ar
    17   13   14 ar
    18   15   16 1 
    19   17   11 1 
    20   18   11 1 
@<TRIPOS>SUBSTRUCTURE
1 MOL         1
@<TRIPOS>MOLECULE
query molecule
   18    20     1     0     0
SMALL
NO_CHARGE

@<TRIPOS>ATOM
      1 C4         63.1708   47.7292   16.6917 C.ar      1 MOL     0.0725
      2 C5         64.3971   48.3502   16.4415 C.ar      1 MOL     0.0009
      3 C6         64.5696   49.6970   16.7622 C.ar      1 MOL     0.0187
      4 C7         63.6824   51.7908   17.6567 C.2       1 MOL    -0.0112
      5 C8         63.1636   52.2946   18.8129 C.2       1 MOL     0.0163
      6 C10        64.3794   52.6959   16.9457 C.2       1 MOL     0.0538
      7 N12        62.9906   46.4291   16.4083 N.ar      1 MOL    -0.2334
      8 C13        63.9792   45.6823   15.8720 C.ar      1 MOL     0.1153
      9 C15        65.4390   47.6095   15.8829 C.ar      1 MOL     0.0138
     10 C14        65.2265   46.2562   15.5927 C.ar      1 MOL     0.0445
     11 N16        63.7559   44.3991   15.5887 N.pl3     1 MOL    -0.3432
     12 C3         62.1296   48.4609   17.2613 C.ar      1 MOL     0.0295
     13 C2         62.3002   49.8113   17.5759 C.ar      1 MOL     0.0108
     14 C1         63.5167   50.4441   17.3156 C.ar      1 MOL    -0.0171
     15 C11        63.3718   53.5900   19.0961 C.2       1 MOL     0.0459
     16 S9         64.2937   54.1592   17.8206 S.3       1 MOL    -0.1054
     17 H161       64.3155   43.9314   14.8900 H         1 MOL     0.1442
     18 H162       63.0271   43.8945   16.0727 H         1 MOL     0.1442
@<TRIPOS>BOND
     1    2    1 ar
     2    1    7 ar
     3    1   12 ar
     4    3    2 ar
     5    2    9 ar
     6   14    3 ar
     7    4    5 1 
     8    4    6 2 
     9    4   14 1 
    10    5   15 2 
    11    6   16 1 
    12    7    8 ar
    13    8   10 ar
    14    8   11 1 
    15    9   10 ar
    16   12   13 ar
    17   13   14 ar
    18   15   16 1 
    19   17   11 1 
    20   18   11 1 
@<TRIPOS>SUBSTRUCTURE
1 MOL         1
@<TRIPOS>MOLECULE
query molecule
   18    20     1     0     0
SMALL
NO_CHARGE

@<TRIPOS>ATOM
      1 C4         75.1056   57.3963    7.9000 C.ar      1 MOL     0.0725
      2 C5         75.6407   56.3695    8.6819 C.ar      1 MOL     0.0009
      3 C6         76.3324   56.6794    9.8532 C.ar      1 MOL     0.0187
      4 C7         77.1938   58.3380   11.4275 C.2       1 MOL    -0.0112
      5 C8         77.6094   59.6128   11.6762 C.2       1 MOL     0.0163
      6 C10        77.4617   57.4838   12.4319 C.2       1 MOL     0.0538
      7 N12        74.4199   57.1182    6.7795 N.ar      1 MOL    -0.2334
      8 C13        74.2278   55.8463    6.3696 C.ar      1 MOL     0.1153
      9 C15        75.4656   55.0435    8.2850 C.ar      1 MOL     0.0138
     10 C14        74.7499   54.7782    7.1110 C.ar      1 MOL     0.0445
     11 N16        73.5564   55.6118    5.2423 N.pl3     1 MOL    -0.3432
     12 C3         75.2665   58.7228    8.2979 C.ar      1 MOL     0.0295
     13 C2         75.9652   59.0334    9.4672 C.ar      1 MOL     0.0108
     14 C1         76.5164   58.0152   10.2466 C.ar      1 MOL    -0.0171
     15 C11        78.2371   59.8659   12.8354 C.2       1 MOL     0.0459
     16 S9         78.2637   58.3946   13.6324 S.3       1 MOL    -0.1054
     17 H161       73.6865   56.2145    4.4423 H         1 MOL     0.1442
     18 H162       72.9176   54.8314    5.1880 H         1 MOL     0.1442
@<TRIPOS>BOND
     1    2    1 ar
     2    1    7 ar
     3    1   12 ar
     4    3    2 ar
     5    2    9 ar
     6   14    3 ar
     7    4    5 1 
     8    4    6 2 
     9    4   14 1 
    10    5   15 2 
    11    6   16 1 
    12    7    8 ar
    13    8   10 ar
    14    8   11 1 
    15    9   10 ar
    16   12   13 ar
    17   13   14 ar
    18   15   16 1 
    19   17   11 1 
    20   18   11 1 
@<TRIPOS>SUBSTRUCTURE
1 MOL         1
@<TRIPOS>MOLECULE
query molecule
   18    20     1     0     0
SMALL
NO_CHARGE

@<TRIPOS>ATOM
      1 C4         71.9639   43.4700    5.1023 C.ar      1 MOL     0.0725
      2 C5         72.5124   43.7597    6.3542 C.ar      1 MOL     0.0009
      3 C6         73.2398   44.9363    6.5361 C.ar      1 MOL     0.0187
      4 C7         74.1594   47.0165    5.6426 C.2       1 MOL    -0.0112
      5 C8         74.2155   47.9557    4.6554 C.2       1 MOL     0.0163
      6 C10        74.8042   47.3830    6.7652 C.2       1 MOL     0.0538
      7 N12        71.2442   42.3524    4.9115 N.ar      1 MOL    -0.2334
      8 C13        71.0300   41.4738    5.9140 C.ar      1 MOL     0.1153
      9 C15        72.3151   42.8710    7.4113 C.ar      1 MOL     0.0138
     10 C14        71.5640   41.7105    7.1875 C.ar      1 MOL     0.0445
     11 N16        70.3248   40.3671    5.6804 N.pl3     1 MOL    -0.3432
     12 C3         72.1471   44.3603    4.0452 C.ar      1 MOL     0.0295
     13 C2         72.8814   45.5350    4.2257 C.ar      1 MOL     0.0108
     14 C1         73.4460   45.8256    5.4685 C.ar      1 MOL    -0.0171
     15 C11        74.8992   49.0872    4.8876 C.2       1 MOL     0.0459
     16 S9         75.4665   48.9251    6.4537 S.3       1 MOL    -0.1054
     17 H161       70.0199   39.7904    6.4516 H         1 MOL     0.1442
     18 H162       70.0952   40.1052    4.7324 H         1 MOL     0.1442
@<TRIPOS>BOND
     1    2    1 ar
     2    1    7 ar
     3    1   12 ar
     4    3    2 ar
     5    2    9 ar
     6   14    3 ar
     7    4    5 1 
     8    4    6 2 
     9    4   14 1 
    10    5   15 2 
    11    6   16 1 
    12    7    8 ar
    13    8   10 ar
    14    8   11 1 
    15    9   10 ar
    16   12   13 ar
    17   13   14 ar
    18   15   16 1 
    19   17   11 1 
    20   18   11 1 
@<TRIPOS>SUBSTRUCTURE
1 MOL         1
@<TRIPOS>MOLECULE
query molecule
   18    20     1     0     0
SMALL
NO_CHARGE

@<TRIPOS>ATOM
      1 C4         72.3473   49.4611   12.8694 C.ar      1 MOL     0.0725
      2 C5         72.6396   48.0952   12.8413 C.ar      1 MOL     0.0009
      3 C6         73.4525   47.5403   13.8301 C.ar      1 MOL     0.0187
      4 C7         74.8024   47.7960   15.8510 C.2       1 MOL    -0.0112
      5 C8         74.8322   46.4513   16.0762 C.2       1 MOL     0.0163
      6 C10        75.6369   48.4890   16.6471 C.2       1 MOL     0.0538
      7 N12        71.5513   50.0109   11.9382 N.ar      1 MOL    -0.2334
      8 C13        71.0123   49.2697   10.9468 C.ar      1 MOL     0.1153
      9 C15        72.1036   47.3003   11.8278 C.ar      1 MOL     0.0138
     10 C14        71.2791   47.8966   10.8658 C.ar      1 MOL     0.0445
     11 N16        70.2410   49.8554   10.0311 N.pl3     1 MOL    -0.3432
     12 C3         72.8699   50.2584   13.8868 C.ar      1 MOL     0.0295
     13 C2         73.6895   49.7040   14.8730 C.ar      1 MOL     0.0108
     14 C1         73.9995   48.3434   14.8445 C.ar      1 MOL    -0.0171
     15 C11        75.6368   45.9826   17.0430 C.2       1 MOL     0.0459
     16 S9         76.3932   47.3419   17.6601 S.3       1 MOL    -0.1054
     17 H161       70.6569   50.2583    9.2035 H         1 MOL     0.1442
     18 H162       69.2408   49.8965   10.1647 H         1 MOL     0.1442
@<TRIPOS>BOND
     1    2    1 ar
     2    1    7 ar
     3    1   12 ar
     4    3    2 ar
     5    2    9 ar
     6   14    3 ar
     7    4    5 1 
     8    4    6 2 
     9    4   14 1 
    10    5   15 2 
    11    6   16 1 
    12    7    8 ar
    13    8   10 ar
    14    8   11 1 
    15    9   10 ar
    16   12   13 ar
    17   13   14 ar
    18   15   16 1 
    19   17   11 1 
    20   18   11 1 
@<TRIPOS>SUBSTRUCTURE
1 MOL         1
@<TRIPOS>MOLECULE
query molecule
   18    20     1     0     0
SMALL
NO_CHARGE

@<TRIPOS>ATOM
      1 C4         64.8325   51.5337   10.0433 C.ar      1 MOL     0.0725
      2 C5         63.6409   50.8136   10.1593 C.ar      1 MOL     0.0009
      3 C6         63.6330   49.4419    9.9042 C.ar      1 MOL     0.0187
      4 C7         64.8150   47.3999    9.2683 C.2       1 MOL    -0.0112
      5 C8         65.1264   46.9022    8.0375 C.2       1 MOL     0.0163
      6 C10        64.5759   46.4446   10.1853 C.2       1 MOL     0.0538
      7 N12        64.8653   52.8507   10.3033 N.ar      1 MOL    -0.2334
      8 C13        63.7556   53.5215   10.6794 C.ar      1 MOL     0.1153
      9 C15        62.4739   51.4761   10.5407 C.ar      1 MOL     0.0138
     10 C14        62.5319   52.8504   10.8032 C.ar      1 MOL     0.0445
     11 N16        63.8251   54.8321   10.9117 N.pl3     1 MOL    -0.3432
     12 C3         66.0045   50.8749    9.6746 C.ar      1 MOL     0.0295
     13 C2         65.9951   49.5027    9.4124 C.ar      1 MOL     0.0108
     14 C1         64.8065   48.7777    9.5108 C.ar      1 MOL    -0.0171
     15 C11        65.1370   45.5704    7.8703 C.2       1 MOL     0.0459
     16 S9         64.7491   44.9517    9.3760 S.3       1 MOL    -0.1054
     17 H161       64.3934   55.1811   11.6703 H         1 MOL     0.1442
     18 H162       63.3095   55.4763   10.3293 H         1 MOL     0.1442
@<TRIPOS>BOND
     1    2    1 ar
     2    1    7 ar
     3    1   12 ar
     4    3    2 ar
     5    2    9 ar
     6   14    3 ar
     7    4    5 1 
     8    4    6 2 
     9    4   14 1 
    10    5   15 2 
    11    6   16 1 
    12    7    8 ar
    13    8   10 ar
    14    8   11 1 
    15    9   10 ar
    16   12   13 ar
    17   13   14 ar
    18   15   16 1 
    19   17   11 1 
    20   18   11 1 
@<TRIPOS>SUBSTRUCTURE
1 MOL         1
@<TRIPOS>MOLECULE
query molecule
   18    20     1     0     0
SMALL
NO_CHARGE

@<TRIPOS>ATOM
      1 C4         61.7195   46.3148    9.5524 C.ar      1 MOL     0.0725
      2 C5         61.9263   44.9744    9.8878 C.ar      1 MOL     0.0009
      3 C6         62.8108   44.6462   10.9156 C.ar      1 MOL     0.0187
      4 C7         64.3908   45.3322   12.6489 C.2       1 MOL    -0.0112
      5 C8         64.8261   44.0544   12.8424 C.2       1 MOL     0.0163
      6 C10        64.9224   46.2141   13.5151 C.2       1 MOL     0.0538
      7 N12        60.8579   46.6527    8.5794 N.ar      1 MOL    -0.2334
      8 C13        60.1689   45.7161    7.8933 C.ar      1 MOL     0.1153
      9 C15        61.2348   43.9801    9.1954 C.ar      1 MOL     0.0138
     10 C14        60.3442   44.3564    8.1825 C.ar      1 MOL     0.0445
     11 N16        59.3357   46.0905    6.9226 N.pl3     1 MOL    -0.3432
     12 C3         62.3982   47.3137   10.2490 C.ar      1 MOL     0.0295
     13 C2         63.2892   46.9846   11.2735 C.ar      1 MOL     0.0108
     14 C1         63.5138   45.6477   11.6054 C.ar      1 MOL    -0.0171
     15 C11        65.6823   43.8161   13.8483 C.2       1 MOL     0.0459
     16 S9         65.9418   45.3144   14.5472 S.3       1 MOL    -0.1054
     17 H161       58.3870   45.7443    6.9099 H         1 MOL     0.1442
     18 H162       59.6530   46.7205    6.1998 H         1 MOL     0.1442
@<TRIPOS>BOND
     1    2    1 ar
     2    1    7 ar
     3    1   12 ar
     4    3    2 ar
     5    2    9 ar
     6   14    3 ar
     7    4    5 1 
     8    4    6 2 
     9    4   14 1 
    10    5   15 2 
    11    6   16 1 
    12    7    8 ar
    13    8   10 ar
    14    8   11 1 
    15    9   10 ar
    16   12   13 ar
    17   13   14 ar
    18   15   16 1 
    19   17   11 1 
    20   18   11 1 
@<TRIPOS>SUBSTRUCTURE
1 MOL         1
@<TRIPOS>MOLECULE
query molecule
   18    20     1     0     0
SMALL
NO_CHARGE

@<TRIPOS>ATOM
      1 C4         69.0103   47.6960    8.3174 C.ar      1 MOL     0.0725
      2 C5         68.4195   47.0859    7.2081 C.ar      1 MOL     0.0009
      3 C6         68.7468   45.7684    6.8861 C.ar      1 MOL     0.0187
      4 C7         70.0051   43.7256    7.3501 C.2       1 MOL    -0.0112
      5 C8         69.2857   42.6884    7.8664 C.2       1 MOL     0.0163
      6 C10        70.9858   43.3323    6.5170 C.2       1 MOL     0.0538
      7 N12        68.6942   48.9566    8.6555 N.ar      1 MOL    -0.2334
      8 C13        67.8039   49.6751    7.9386 C.ar      1 MOL     0.1153
      9 C15        67.4991   47.8011    6.4416 C.ar      1 MOL     0.0138
     10 C14        67.1878   49.1153    6.8115 C.ar      1 MOL     0.0445
     11 N16        67.5295   50.9295    8.2960 N.pl3     1 MOL    -0.3432
     12 C3         69.9215   46.9823    9.0946 C.ar      1 MOL     0.0295
     13 C2         70.2545   45.6653    8.7680 C.ar      1 MOL     0.0108
     14 C1         69.6811   45.0525    7.6529 C.ar      1 MOL    -0.0171
     15 C11        69.6318   41.4375    7.5243 C.2       1 MOL     0.0459
     16 S9         70.9239   41.6269    6.4778 S.3       1 MOL    -0.1054
     17 H161       67.7809   51.6947    7.6866 H         1 MOL     0.1442
     18 H162       67.0701   51.1148    9.1761 H         1 MOL     0.1442
@<TRIPOS>BOND
     1    2    1 ar
     2    1    7 ar
     3    1   12 ar
     4    3    2 ar
     5    2    9 ar
     6   14    3 ar
     7    4    5 1 
     8    4    6 2 
     9    4   14 1 
    10    5   15 2 
    11    6   16 1 
    12    7    8 ar
    13    8   10 ar
    14    8   11 1 
    15    9   10 ar
    16   12   13 ar
    17   13   14 ar
    18   15   16 1 
    19   17   11 1 
    20   18   11 1 
@<TRIPOS>SUBSTRUCTURE
1 MOL         1
@<TRIPOS>MOLECULE
query molecule
   18    20     1     0     0
SMALL
NO_CHARGE

@<TRIPOS>ATOM
      1 C4         71.6004   50.0235    8.6493 C.ar      1 MOL     0.0725
      2 C5         70.6486   49.1221    8.1661 C.ar      1 MOL     0.0009
      3 C6         69.3294   49.2018    8.6133 C.ar      1 MOL     0.0187
      4 C7         67.6265   50.2667   10.0052 C.2       1 MOL    -0.0112
      5 C8         67.3208   50.2013   11.3326 C.2       1 MOL     0.0163
      6 C10        66.5540   50.4776    9.2204 C.2       1 MOL     0.0538
      7 N12        72.8708   49.9759    8.2169 N.ar      1 MOL    -0.2334
      8 C13        73.2714   49.0597    7.3097 C.ar      1 MOL     0.1153
      9 C15        71.0292   48.1586    7.2316 C.ar      1 MOL     0.0138
     10 C14        72.3604   48.1262    6.7982 C.ar      1 MOL     0.0445
     11 N16        74.5453   49.0335    6.9184 N.pl3     1 MOL    -0.3432
     12 C3         71.2233   50.9965    9.5739 C.ar      1 MOL     0.0295
     13 C2         69.9039   51.0718   10.0269 C.ar      1 MOL     0.0108
     14 C1         68.9495   50.1661    9.5615 C.ar      1 MOL    -0.0171
     15 C11        66.0355   50.3238   11.6995 C.2       1 MOL     0.0459
     16 S9         65.2057   50.5535   10.2645 S.3       1 MOL    -0.1054
     17 H161       75.2371   48.5602    7.4819 H         1 MOL     0.1442
     18 H162       74.8188   49.4868    6.0583 H         1 MOL     0.1442
@<TRIPOS>BOND
     1    2    1 ar
     2    1    7 ar
     3    1   12 ar
     4    3    2 ar
     5    2    9 ar
     6   14    3 ar
     7    4    5 1 
     8    4    6 2 
     9    4   14 1 
    10    5   15 2 
    11    6   16 1 
    12    7    8 ar
    13    8   10 ar
    14    8   11 1 
    15    9   10 ar
    16   12   13 ar
    17   13   14 ar
    18   15   16 1 
    19   17   11 1 
    20   18   11 1 
@<TRIPOS>SUBSTRUCTURE
1 MOL         1
@<TRIPOS>MOLECULE
query molecule
   18    20     1     0     0
SMALL
NO_CHARGE

@<TRIPOS>ATOM
      1 C4         69.2816   48.1223    9.3658 C.ar      1 MOL     0.0725
      2 C5         70.6712   48.0092    9.4561 C.ar      1 MOL     0.0009
      3 C6         71.3613   48.7177   10.4402 C.ar      1 MOL     0.0187
      4 C7         71.3560   50.2646   12.3319 C.2       1 MOL    -0.0112
      5 C8         72.3560   49.6788   13.0505 C.2       1 MOL     0.0163
      6 C10        71.1482   51.5532   12.6588 C.2       1 MOL     0.0538
      7 N12        68.5969   47.4338    8.4384 N.ar      1 MOL    -0.2334
      8 C13        69.2226   46.6169    7.5643 C.ar      1 MOL     0.1153
      9 C15        71.3506   47.1780    8.5652 C.ar      1 MOL     0.0138
     10 C14        70.6156   46.4726    7.6045 C.ar      1 MOL     0.0445
     11 N16        68.5095   45.9637    6.6469 N.pl3     1 MOL    -0.3432
     12 C3         68.5958   48.9418   10.2612 C.ar      1 MOL     0.0295
     13 C2         69.2876   49.6567   11.2422 C.ar      1 MOL     0.0108
     14 C1         70.6772   49.5619   11.3304 C.ar      1 MOL    -0.0171
     15 C11        72.9841   50.4093   13.9852 C.2       1 MOL     0.0459
     16 S9         72.2578   51.9148   13.9046 S.3       1 MOL    -0.1054
     17 H161       67.8493   45.2543    6.9315 H         1 MOL     0.1442
     18 H162       68.6294   46.1781    5.6673 H         1 MOL     0.1442
@<TRIPOS>BOND
     1    2    1 ar
     2    1    7 ar
     3    1   12 ar
     4    3    2 ar
     5    2    9 ar
     6   14    3 ar
     7    4    5 1 
     8    4    6 2 
     9    4   14 1 
    10    5   15 2 
    11    6   16 1 
    12    7    8 ar
    13    8   10 ar
    14    8   11 1 
    15    9   10 ar
    16   12   13 ar
    17   13   14 ar
    18   15   16 1 
    19   17   11 1 
    20   18   11 1 
@<TRIPOS>SUBSTRUCTURE
1 MOL         1
@<TRIPOS>MOLECULE
query molecule
   18    20     1     0     0
SMALL
NO_CHARGE

@<TRIPOS>ATOM
      1 C4         72.2038   44.4514    9.0981 C.ar      1 MOL     0.0725
      2 C5         73.1585   45.4672    9.0041 C.ar      1 MOL     0.0009
      3 C6         72.7552   46.7728    8.7229 C.ar      1 MOL     0.0187
      4 C7         70.9814   48.3845    8.2459 C.2       1 MOL    -0.0112
      5 C8         69.7922   48.8547    8.7197 C.2       1 MOL     0.0163
      6 C10        71.6867   49.3064    7.5655 C.2       1 MOL     0.0538
      7 N12        72.5694   43.1920    9.3870 N.ar      1 MOL    -0.2334
      8 C13        73.8630   42.8642    9.5913 C.ar      1 MOL     0.1153
      9 C15        74.5052   45.1628    9.2042 C.ar      1 MOL     0.0138
     10 C14        74.8627   43.8418    9.5008 C.ar      1 MOL     0.0445
     11 N16        74.1878   41.5995    9.8588 N.pl3     1 MOL    -0.3432
     12 C3         70.8552   44.7517    8.9115 C.ar      1 MOL     0.0295
     13 C2         70.4521   46.0579    8.6231 C.ar      1 MOL     0.0108
     14 C1         71.4000   47.0763    8.5120 C.ar      1 MOL    -0.0171
     15 C11        69.4530   50.1247    8.4483 C.2       1 MOL     0.0459
     16 S9         70.7405   50.7272    7.5652 S.3       1 MOL    -0.1054
     17 H161       75.1582   41.3201    9.8760 H         1 MOL     0.1442
     18 H162       73.4635   40.9205   10.0443 H         1 MOL     0.1442
@<TRIPOS>BOND
     1    2    1 ar
     2    1    7 ar
     3    1   12 ar
     4    3    2 ar
     5    2    9 ar
     6   14    3 ar
     7    4    5 1 
     8    4    6 2 
     9    4   14 1 
    10    5   15 2 
    11    6   16 1 
    12    7    8 ar
    13    8   10 ar
    14    8   11 1 
    15    9   10 ar
    16   12   13 ar
    17   13   14 ar
    18   15   16 1 
    19   17   11 1 
    20   18   11 1 
@<TRIPOS>SUBSTRUCTURE
1 MOL         1
@<TRIPOS>MOLECULE
query molecule
   18    20     1     0     0
SMALL
NO_CHARGE

@<TRIPOS>ATOM
      1 C4         63.5441   47.1490    5.4395 C.ar      1 MOL     0.0725
      2 C5         63.8084   46.2463    6.4726 C.ar      1 MOL     0.0009
      3 C6         64.4501   46.6871    7.6303 C.ar      1 MOL     0.0187
      4 C7         65.4832   48.4839    8.9249 C.2       1 MOL    -0.0112
      5 C8         66.7552   48.1026    9.2352 C.2       1 MOL     0.0163
      6 C10        64.9549   49.3498    9.8090 C.2       1 MOL     0.0538
      7 N12        62.9103   46.7489    4.3253 N.ar      1 MOL    -0.2334
      8 C13        62.5122   45.4691    4.1634 C.ar      1 MOL     0.1153
      9 C15        63.4156   44.9146    6.3364 C.ar      1 MOL     0.0138
     10 C14        62.7591   44.5200    5.1641 C.ar      1 MOL     0.0445
     11 N16        61.9012   45.1069    3.0355 N.pl3     1 MOL    -0.3432
     12 C3         63.9231   48.4838    5.5749 C.ar      1 MOL     0.0295
     13 C2         64.5719   48.9237    6.7313 C.ar      1 MOL     0.0108
     14 C1         64.8538   48.0261    7.7622 C.ar      1 MOL    -0.0171
     15 C11        67.3137   48.5900   10.3542 C.2       1 MOL     0.0459
     16 S9         66.1457   49.5949   11.0073 S.3       1 MOL    -0.1054
     17 H161       61.0123   44.6290    3.0737 H         1 MOL     0.1442
     18 H162       62.3272   45.3104    2.1426 H         1 MOL     0.1442
@<TRIPOS>BOND
     1    2    1 ar
     2    1    7 ar
     3    1   12 ar
     4    3    2 ar
     5    2    9 ar
     6   14    3 ar
     7    4    5 1 
     8    4    6 2 
     9    4   14 1 
    10    5   15 2 
    11    6   16 1 
    12    7    8 ar
    13    8   10 ar
    14    8   11 1 
    15    9   10 ar
    16   12   13 ar
    17   13   14 ar
    18   15   16 1 
    19   17   11 1 
    20   18   11 1 
@<TRIPOS>SUBSTRUCTURE
1 MOL         1
@<TRIPOS>MOLECULE
query molecule
   18    20     1     0     0
SMALL
NO_CHARGE

@<TRIPOS>ATOM
      1 C4         65.6892   47.9813   20.3700 C.ar      1 MOL     0.0725
      2 C5         64.7751   47.0004   20.7626 C.ar      1 MOL     0.0009
      3 C6         63.4100   47.2887   20.7693 C.ar      1 MOL     0.0187
      4 C7         61.5759   48.8588   20.3925 C.2       1 MOL    -0.0112
      5 C8         60.7761   48.4528   19.3652 C.2       1 MOL     0.0163
      6 C10        60.9081   49.5057   21.3651 C.2       1 MOL     0.0538
      7 N12        67.0055   47.7179   20.3380 N.ar      1 MOL    -0.2334
      8 C13        67.4891   46.5061   20.6851 C.ar      1 MOL     0.1153
      9 C15        65.2406   45.7385   21.1329 C.ar      1 MOL     0.0138
     10 C14        66.6178   45.4882   21.0949 C.ar      1 MOL     0.0445
     11 N16        68.8039   46.2888   20.6569 N.pl3     1 MOL    -0.3432
     12 C3         65.2291   49.2404   19.9870 C.ar      1 MOL     0.0295
     13 C2         63.8627   49.5312   20.0004 C.ar      1 MOL     0.0108
     14 C1         62.9432   48.5626   20.4056 C.ar      1 MOL    -0.0171
     15 C11        59.4681   48.7497   19.4174 C.2       1 MOL     0.0459
     16 S9         59.2768   49.5656   20.8660 S.3       1 MOL    -0.1054
     17 H161       69.4051   46.8985   20.1213 H         1 MOL     0.1442
     18 H162       69.1989   45.5146   21.1712 H         1 MOL     0.1442
@<TRIPOS>BOND
     1    2    1 ar
     2    1    7 ar
     3    1   12 ar
     4    3    2 ar
     5    2    9 ar
     6   14    3 ar
     7    4    5 1 
     8    4    6 2 
     9    4   14 1 
    10    5   15 2 
    11    6   16 1 
    12    7    8 ar
    13    8   10 ar
    14    8   11 1 
    15    9   10 ar
    16   12   13 ar
    17   13   14 ar
    18   15   16 1 
    19   17   11 1 
    20   18   11 1 
@<TRIPOS>SUBSTRUCTURE
1 MOL         1
@<TRIPOS>MOLECULE
query molecule
   18    20     1     0     0
SMALL
NO_CHARGE

@<TRIPOS>ATOM
      1 C4         68.0308   53.1785   11.4572 C.ar      1 MOL     0.0725
      2 C5         69.2851   53.3747   10.8740 C.ar      1 MOL     0.0009
      3 C6         70.3843   52.6497   11.3351 C.ar      1 MOL     0.0187
      4 C7         71.3411   50.9929   12.8553 C.2       1 MOL    -0.0112
      5 C8         71.5934   49.7415   12.3756 C.2       1 MOL     0.0163
      6 C10        72.2556   51.4172   13.7465 C.2       1 MOL     0.0538
      7 N12        66.9566   53.8521   11.0150 N.ar      1 MOL    -0.2334
      8 C13        67.0504   54.7389   10.0014 C.ar      1 MOL     0.1153
      9 C15        69.4193   54.2876    9.8276 C.ar      1 MOL     0.0138
     10 C14        68.2857   54.9808    9.3859 C.ar      1 MOL     0.0445
     11 N16        65.9644   55.4008    9.6024 N.pl3     1 MOL    -0.3432
     12 C3         67.8879   52.2584   12.4949 C.ar      1 MOL     0.0295
     13 C2         68.9900   51.5376   12.9612 C.ar      1 MOL     0.0108
     14 C1         70.2499   51.7379   12.3951 C.ar      1 MOL    -0.0171
     15 C11        72.6664   49.0828   12.8408 C.2       1 MOL     0.0459
     16 S9         73.3782   50.1433   13.9221 S.3       1 MOL    -0.1054
     17 H161       65.1825   55.5140   10.2317 H         1 MOL     0.1442
     18 H162       65.9233   55.7890    8.6710 H         1 MOL     0.1442
@<TRIPOS>BOND
     1    2    1 ar
     2    1    7 ar
     3    1   12 ar
     4    3    2 ar
     5    2    9 ar
     6   14    3 ar
     7    4    5 1 
     8    4    6 2 
     9    4   14 1 
    10    5   15 2 
    11    6   16 1 
    12    7    8 ar
    13    8   10 ar
    14    8   11 1 
    15    9   10 ar
    16   12   13 ar
    17   13   14 ar
    18   15   16 1 
    19   17   11 1 
    20   18   11 1 
@<TRIPOS>SUBSTRUCTURE
1 MOL         1
@<TRIPOS>MOLECULE
query molecule
   18    20     1     0     0
SMALL
NO_CHARGE

@<TRIPOS>ATOM
      1 C4         75.3312   45.9852    6.7784 C.ar      1 MOL     0.0725
      2 C5         75.3197   47.0177    7.7195 C.ar      1 MOL     0.0009
      3 C6         76.1210   46.9262    8.8580 C.ar      1 MOL     0.0187
      4 C7         77.7458   45.7005   10.2103 C.2       1 MOL    -0.0112
      5 C8         78.8319   46.5106   10.3642 C.2       1 MOL     0.0163
      6 C10        77.5460   44.8723   11.2519 C.2       1 MOL     0.0538
      7 N12        74.5821   46.0630    5.6666 N.ar      1 MOL    -0.2334
      8 C13        73.7942   47.1317    5.4225 C.ar      1 MOL     0.1153
      9 C15        74.5128   48.1348    7.5016 C.ar      1 MOL     0.0138
     10 C14        73.7378   48.1919    6.3368 C.ar      1 MOL     0.0445
     11 N16        73.0520   47.1639    4.3158 N.pl3     1 MOL    -0.3432
     12 C3         76.1449   44.8720    6.9844 C.ar      1 MOL     0.0295
     13 C2         76.9420   44.7772    8.1278 C.ar      1 MOL     0.0108
     14 C1         76.9256   45.7965    9.0810 C.ar      1 MOL    -0.0171
     15 C11        79.5703   46.3855   11.4781 C.2       1 MOL     0.0459
     16 S9         78.8058   45.1862   12.3601 S.3       1 MOL    -0.1054
     17 H161       72.8889   46.3157    3.7923 H         1 MOL     0.1442
     18 H162       72.6526   48.0364    4.0007 H         1 MOL     0.1442
@<TRIPOS>BOND
     1    2    1 ar
     2    1    7 ar
     3    1   12 ar
     4    3    2 ar
     5    2    9 ar
     6   14    3 ar
     7    4    5 1 
     8    4    6 2 
     9    4   14 1 
    10    5   15 2 
    11    6   16 1 
    12    7    8 ar
    13    8   10 ar
    14    8   11 1 
    15    9   10 ar
    16   12   13 ar
    17   13   14 ar
    18   15   16 1 
    19   17   11 1 
    20   18   11 1 
@<TRIPOS>SUBSTRUCTURE
1 MOL         1
@<TRIPOS>MOLECULE
query molecule
   18    20     1     0     0
SMALL
NO_CHARGE

@<TRIPOS>ATOM
      1 C4         66.9712   52.0567   13.6406 C.ar      1 MOL     0.0725
      2 C5         67.0307   53.0929   12.7054 C.ar      1 MOL     0.0009
      3 C6         67.6223   52.8702   11.4616 C.ar      1 MOL     0.0187
      4 C7         68.7601   51.3796    9.8948 C.2       1 MOL    -0.0112
      5 C8         70.1117   51.4370    9.7226 C.2       1 MOL     0.0163
      6 C10        68.0941   51.0329    8.7782 C.2       1 MOL     0.0538
      7 N12        66.3888   52.2449   14.8358 N.ar      1 MOL    -0.2334
      8 C13        65.8476   53.4343   15.1752 C.ar      1 MOL     0.1153
      9 C15        66.4860   54.3368   13.0250 C.ar      1 MOL     0.0138
     10 C14        65.8869   54.5104   14.2788 C.ar      1 MOL     0.0445
     11 N16        65.2938   53.5868   16.3780 N.pl3     1 MOL    -0.3432
     12 C3         67.5027   50.8077   13.3223 C.ar      1 MOL     0.0295
     13 C2         68.1013   50.5868   12.0795 C.ar      1 MOL     0.0108
     14 C1         68.1791   51.6201   11.1446 C.ar      1 MOL    -0.0171
     15 C11        70.6126   51.1776    8.5046 C.2       1 MOL     0.0459
     16 S9         69.2747   50.8263    7.5627 S.3       1 MOL    -0.1054
     17 H161       65.3976   52.8651   17.0770 H         1 MOL     0.1442
     18 H162       64.7704   54.4241   16.5905 H         1 MOL     0.1442
@<TRIPOS>BOND
     1    2    1 ar
     2    1    7 ar
     3    1   12 ar
     4    3    2 ar
     5    2    9 ar
     6   14    3 ar
     7    4    5 1 
     8    4    6 2 
     9    4   14 1 
    10    5   15 2 
    11    6   16 1 
    12    7    8 ar
    13    8   10 ar
    14    8   11 1 
    15    9   10 ar
    16   12   13 ar
    17   13   14 ar
    18   15   16 1 
    19   17   11 1 
    20   18   11 1 
@<TRIPOS>SUBSTRUCTURE
1 MOL         1
@<TRIPOS>MOLECULE
query molecule
   18    20     1     0     0
SMALL
NO_CHARGE

@<TRIPOS>ATOM
      1 C4         69.7198   49.9292    5.7058 C.ar      1 MOL     0.0725
      2 C5         71.0473   49.7604    6.1074 C.ar      1 MOL     0.0009
      3 C6         72.0641   49.7514    5.1521 C.ar      1 MOL     0.0187
      4 C7         72.7795   49.8986    2.8202 C.2       1 MOL    -0.0112
      5 C8         74.0707   49.6078    3.1488 C.2       1 MOL     0.0163
      6 C10        72.6035   50.1362    1.5076 C.2       1 MOL     0.0538
      7 N12        68.7286   49.9601    6.6112 N.ar      1 MOL    -0.2334
      8 C13        68.9773   49.8264    7.9314 C.ar      1 MOL     0.1153
      9 C15        71.3397   49.6138    7.4636 C.ar      1 MOL     0.0138
     10 C14        70.2892   49.6459    8.3889 C.ar      1 MOL     0.0445
     11 N16        67.9644   49.8450    8.7977 N.pl3     1 MOL    -0.3432
     12 C3         69.4224   50.0886    4.3531 C.ar      1 MOL     0.0295
     13 C2         70.4400   50.0726    3.3959 C.ar      1 MOL     0.0108
     14 C1         71.7674   49.8893    3.7861 C.ar      1 MOL    -0.0171
     15 C11        74.9950   49.6134    2.1755 C.2       1 MOL     0.0459
     16 S9         74.1430   49.9890    0.7849 S.3       1 MOL    -0.1054
     17 H161       67.6158   48.9802    9.1858 H         1 MOL     0.1442
     18 H162       67.5455   50.7240    9.0661 H         1 MOL     0.1442
@<TRIPOS>BOND
     1    2    1 ar
     2    1    7 ar
     3    1   12 ar
     4    3    2 ar
     5    2    9 ar
     6   14    3 ar
     7    4    5 1 
     8    4    6 2 
     9    4   14 1 
    10    5   15 2 
    11    6   16 1 
    12    7    8 ar
    13    8   10 ar
    14    8   11 1 
    15    9   10 ar
    16   12   13 ar
    17   13   14 ar
    18   15   16 1 
    19   17   11 1 
    20   18   11 1 
@<TRIPOS>SUBSTRUCTURE
1 MOL         1
@<TRIPOS>MOLECULE
query molecule
   18    20     1     0     0
SMALL
NO_CHARGE

@<TRIPOS>ATOM
      1 C4         73.3910   42.4830   20.7057 C.ar      1 MOL     0.0725
      2 C5         72.3119   43.3441   20.9196 C.ar      1 MOL     0.0009
      3 C6         72.5386   44.7108   21.0848 C.ar      1 MOL     0.0187
      4 C7         74.0821   46.6013   21.2074 C.2       1 MOL    -0.0112
      5 C8         75.3525   47.0946   21.2561 C.2       1 MOL     0.0163
      6 C10        73.1361   47.5562   21.2681 C.2       1 MOL     0.0538
      7 N12        73.1924   41.1673   20.5251 N.ar      1 MOL    -0.2334
      8 C13        71.9527   40.6333   20.5475 C.ar      1 MOL     0.1153
      9 C15        71.0173   42.8253   20.9541 C.ar      1 MOL     0.0138
     10 C14        70.8352   41.4496   20.7666 C.ar      1 MOL     0.0445
     11 N16        71.7980   39.3198   20.3814 N.pl3     1 MOL    -0.3432
     12 C3         74.6860   42.9972   20.6578 C.ar      1 MOL     0.0295
     13 C2         74.9135   44.3648   20.8301 C.ar      1 MOL     0.0108
     14 C1         73.8433   45.2307   21.0596 C.ar      1 MOL    -0.0171
     15 C11        75.5191   48.4208   21.3794 C.2       1 MOL     0.0459
     16 S9         73.9654   49.0416   21.4100 S.3       1 MOL    -0.1054
     17 H161       71.4779   38.7478   21.1499 H         1 MOL     0.1442
     18 H162       72.0009   38.8965   19.4872 H         1 MOL     0.1442
@<TRIPOS>BOND
     1    2    1 ar
     2    1    7 ar
     3    1   12 ar
     4    3    2 ar
     5    2    9 ar
     6   14    3 ar
     7    4    5 1 
     8    4    6 2 
     9    4   14 1 
    10    5   15 2 
    11    6   16 1 
    12    7    8 ar
    13    8   10 ar
    14    8   11 1 
    15    9   10 ar
    16   12   13 ar
    17   13   14 ar
    18   15   16 1 
    19   17   11 1 
    20   18   11 1 
@<TRIPOS>SUBSTRUCTURE
1 MOL         1
@<TRIPOS>MOLECULE
query molecule
   18    20     1     0     0
SMALL
NO_CHARGE

@<TRIPOS>ATOM
      1 C4         67.7983   50.5636    8.6570 C.ar      1 MOL     0.0725
      2 C5         68.2643   49.5178    9.4577 C.ar      1 MOL     0.0009
      3 C6         68.9577   49.8025   10.6344 C.ar      1 MOL     0.0187
      4 C7         69.8919   51.4291   12.2006 C.2       1 MOL    -0.0112
      5 C8         69.2195   51.6038   13.3741 C.2       1 MOL     0.0163
      6 C10        71.2275   51.5278   12.3310 C.2       1 MOL     0.0538
      7 N12        67.1120   50.3109    7.5307 N.ar      1 MOL    -0.2334
      8 C13        66.8532   49.0469    7.1331 C.ar      1 MOL     0.1153
      9 C15        68.0192   48.1991    9.0740 C.ar      1 MOL     0.0138
     10 C14        67.3044   47.9603    7.8938 C.ar      1 MOL     0.0445
     11 N16        66.1838   48.8369    5.9998 N.pl3     1 MOL    -0.3432
     12 C3         68.0293   51.8836    9.0415 C.ar      1 MOL     0.0295
     13 C2         68.7297   52.1686   10.2162 C.ar      1 MOL     0.0108
     14 C1         69.2123   51.1306   11.0147 C.ar      1 MOL    -0.0171
     15 C11        69.9275   51.8692   14.4832 C.2       1 MOL     0.0459
     16 S9         71.5227   51.8676   13.9776 S.3       1 MOL    -0.1054
     17 H161       65.7255   47.9510    5.8408 H         1 MOL     0.1442
     18 H162       66.1348   49.5636    5.3001 H         1 MOL     0.1442
@<TRIPOS>BOND
     1    2    1 ar
     2    1    7 ar
     3    1   12 ar
     4    3    2 ar
     5    2    9 ar
     6   14    3 ar
     7    4    5 1 
     8    4    6 2 
     9    4   14 1 
    10    5   15 2 
    11    6   16 1 
    12    7    8 ar
    13    8   10 ar
    14    8   11 1 
    15    9   10 ar
    16   12   13 ar
    17   13   14 ar
    18   15   16 1 
    19   17   11 1 
    20   18   11 1 
@<TRIPOS>SUBSTRUCTURE
1 MOL         1
@<TRIPOS>MOLECULE
query molecule
   18    20     1     0     0
SMALL
NO_CHARGE

@<TRIPOS>ATOM
      1 C4         74.5048   45.3242    7.2946 C.ar      1 MOL     0.0725
      2 C5         74.8052   44.1842    8.0443 C.ar      1 MOL     0.0009
      3 C6         75.9161   44.1831    8.8884 C.ar      1 MOL     0.0187
      4 C7         77.8579   45.3265    9.8336 C.2       1 MOL    -0.0112
      5 C8         78.6810   44.2448    9.9434 C.2       1 MOL     0.0163
      6 C10        78.2531   46.3755   10.5778 C.2       1 MOL     0.0538
      7 N12        73.4293   45.3522    6.4911 N.ar      1 MOL    -0.2334
      8 C13        72.6082   44.2866    6.3771 C.ar      1 MOL     0.1153
      9 C15        73.9810   43.0628    7.9467 C.ar      1 MOL     0.0138
     10 C14        72.8671   43.1144    7.0997 C.ar      1 MOL     0.0445
     11 N16        71.5603   44.3472    5.5557 N.pl3     1 MOL    -0.3432
     12 C3         75.3176   46.4523    7.3973 C.ar      1 MOL     0.0295
     13 C2         76.4339   46.4488    8.2373 C.ar      1 MOL     0.0108
     14 C1         76.7507   45.3094    8.9785 C.ar      1 MOL    -0.0171
     15 C11        79.7389   44.3272   10.7655 C.2       1 MOL     0.0459
     16 S9         79.6653   45.8756   11.3961 S.3       1 MOL    -0.1054
     17 H161       70.8494   43.6306    5.5902 H         1 MOL     0.1442
     18 H162       71.4770   45.1099    4.8988 H         1 MOL     0.1442
@<TRIPOS>BOND
     1    2    1 ar
     2    1    7 ar
     3    1   12 ar
     4    3    2 ar
     5    2    9 ar
     6   14    3 ar
     7    4    5 1 
     8    4    6 2 
     9    4   14 1 
    10    5   15 2 
    11    6   16 1 
    12    7    8 ar
    13    8   10 ar
    14    8   11 1 
    15    9   10 ar
    16   12   13 ar
    17   13   14 ar
    18   15   16 1 
    19   17   11 1 
    20   18   11 1 
@<TRIPOS>SUBSTRUCTURE
1 MOL         1
@<TRIPOS>MOLECULE
query molecule
   18    20     1     0     0
SMALL
NO_CHARGE

@<TRIPOS>ATOM
      1 C4         68.8859   47.6224    6.8659 C.ar      1 MOL     0.0725
      2 C5         69.7270   46.7695    7.5849 C.ar      1 MOL     0.0009
      3 C6         71.0854   47.0680    7.6956 C.ar      1 MOL     0.0187
      4 C7         72.9807   48.5259    7.1916 C.2       1 MOL    -0.0112
      5 C8         73.9367   47.5535    7.1859 C.2       1 MOL     0.0163
      6 C10        73.4858   49.7704    7.2720 C.2       1 MOL     0.0538
      7 N12        67.5722   47.3633    6.7639 N.ar      1 MOL    -0.2334
      8 C13        67.0224   46.2756    7.3448 C.ar      1 MOL     0.1153
      9 C15        69.1933   45.6334    8.1936 C.ar      1 MOL     0.0138
     10 C14        67.8212   45.3821    8.0706 C.ar      1 MOL     0.0445
     11 N16        65.7173   46.0436    7.2061 N.pl3     1 MOL    -0.3432
     12 C3         69.4111   48.7660    6.2658 C.ar      1 MOL     0.0295
     13 C2         70.7726   49.0611    6.3708 C.ar      1 MOL     0.0108
     14 C1         71.6235   48.2070    7.0741 C.ar      1 MOL    -0.0171
     15 C11        75.2239   47.9218    7.2823 C.2       1 MOL     0.0459
     16 S9         75.1813   49.5929    7.3602 S.3       1 MOL    -0.1054
     17 H161       65.3425   45.7907    6.3029 H         1 MOL     0.1442
     18 H162       65.1030   46.1207    8.0041 H         1 MOL     0.1442
@<TRIPOS>BOND
     1    2    1 ar
     2    1    7 ar
     3    1   12 ar
     4    3    2 ar
     5    2    9 ar
     6   14    3 ar
     7    4    5 1 
     8    4    6 2 
     9    4   14 1 
    10    5   15 2 
    11    6   16 1 
    12    7    8 ar
    13    8   10 ar
    14    8   11 1 
    15    9   10 ar
    16   12   13 ar
    17   13   14 ar
    18   15   16 1 
    19   17   11 1 
    20   18   11 1 
@<TRIPOS>SUBSTRUCTURE
1 MOL         1
@<TRIPOS>MOLECULE
query molecule
   18    20     1     0     0
SMALL
NO_CHARGE

@<TRIPOS>ATOM
      1 C4         67.4023   50.5498   10.2662 C.ar      1 MOL     0.0725
      2 C5         67.4097   49.9761    8.9924 C.ar      1 MOL     0.0009
      3 C6         66.5286   48.9357    8.6962 C.ar      1 MOL     0.0187
      4 C7         64.7468   47.4105    9.3819 C.2       1 MOL    -0.0112
      5 C8         63.4830   47.6786    8.9451 C.2       1 MOL     0.0163
      6 C10        65.0201   46.0947    9.4494 C.2       1 MOL     0.0538
      7 N12        68.2288   51.5650   10.5654 N.ar      1 MOL    -0.2334
      8 C13        69.0924   52.0612    9.6539 C.ar      1 MOL     0.1153
      9 C15        68.2931   50.4607    8.0275 C.ar      1 MOL     0.0138
     10 C14        69.1478   51.5178    8.3636 C.ar      1 MOL     0.0445
     11 N16        69.9089   53.0581    9.9945 N.pl3     1 MOL    -0.3432
     12 C3         66.5132   50.0782   11.2310 C.ar      1 MOL     0.0295
     13 C2         65.6358   49.0317   10.9365 C.ar      1 MOL     0.0108
     14 C1         65.6464   48.4421    9.6715 C.ar      1 MOL    -0.0171
     15 C11        62.6712   46.6471    8.6645 C.2       1 MOL     0.0459
     16 S9         63.5986   45.2859    8.9605 S.3       1 MOL    -0.1054
     17 H161       69.6934   54.0049    9.7164 H         1 MOL     0.1442
     18 H162       70.7432   52.8668   10.5306 H         1 MOL     0.1442
@<TRIPOS>BOND
     1    2    1 ar
     2    1    7 ar
     3    1   12 ar
     4    3    2 ar
     5    2    9 ar
     6   14    3 ar
     7    4    5 1 
     8    4    6 2 
     9    4   14 1 
    10    5   15 2 
    11    6   16 1 
    12    7    8 ar
    13    8   10 ar
    14    8   11 1 
    15    9   10 ar
    16   12   13 ar
    17   13   14 ar
    18   15   16 1 
    19   17   11 1 
    20   18   11 1 
@<TRIPOS>SUBSTRUCTURE
1 MOL         1
@<TRIPOS>MOLECULE
query molecule
   18    20     1     0     0
SMALL
NO_CHARGE

@<TRIPOS>ATOM
      1 C4         65.2082   48.2628    9.2706 C.ar      1 MOL     0.0725
      2 C5         64.8315   46.9590    9.6023 C.ar      1 MOL     0.0009
      3 C6         63.9551   46.7405   10.6656 C.ar      1 MOL     0.0187
      4 C7         62.5694   47.6113   12.4803 C.2       1 MOL    -0.0112
      5 C8         61.4294   46.8825   12.3104 C.2       1 MOL     0.0163
      6 C10        62.7421   48.0456   13.7421 C.2       1 MOL     0.0538
      7 N12        66.0353   48.4956    8.2387 N.ar      1 MOL    -0.2334
      8 C13        66.5315   47.4855    7.4930 C.ar      1 MOL     0.1153
      9 C15        65.3298   45.8907    8.8561 C.ar      1 MOL     0.0138
     10 C14        66.1934   46.1578    7.7867 C.ar      1 MOL     0.0445
     11 N16        67.3636   47.7561    6.4875 N.pl3     1 MOL    -0.3432
     12 C3         64.7038   49.3353   10.0048 C.ar      1 MOL     0.0295
     13 C2         63.8317   49.1161   11.0739 C.ar      1 MOL     0.0108
     14 C1         63.4617   47.8162   11.4224 C.ar      1 MOL    -0.0171
     15 C11        60.6215   46.7035   13.3673 C.2       1 MOL     0.0459
     16 S9         61.3896   47.4948   14.6260 S.3       1 MOL    -0.1054
     17 H161       67.6496   47.0208    5.8568 H         1 MOL     0.1442
     18 H162       67.7080   48.6964    6.3560 H         1 MOL     0.1442
@<TRIPOS>BOND
     1    2    1 ar
     2    1    7 ar
     3    1   12 ar
     4    3    2 ar
     5    2    9 ar
     6   14    3 ar
     7    4    5 1 
     8    4    6 2 
     9    4   14 1 
    10    5   15 2 
    11    6   16 1 
    12    7    8 ar
    13    8   10 ar
    14    8   11 1 
    15    9   10 ar
    16   12   13 ar
    17   13   14 ar
    18   15   16 1 
    19   17   11 1 
    20   18   11 1 
@<TRIPOS>SUBSTRUCTURE
1 MOL         1
@<TRIPOS>MOLECULE
query molecule
   18    20     1     0     0
SMALL
NO_CHARGE

@<TRIPOS>ATOM
      1 C4         70.6813   50.9970   11.5382 C.ar      1 MOL     0.0725
      2 C5         70.8795   49.6459   11.2430 C.ar      1 MOL     0.0009
      3 C6         70.2124   49.0680   10.1625 C.ar      1 MOL     0.0187
      4 C7         68.6633   49.2601    8.2824 C.2       1 MOL    -0.0112
      5 C8         67.4942   48.5761    8.4402 C.2       1 MOL     0.0163
      6 C10        69.0541   49.3599    6.9987 C.2       1 MOL     0.0538
      7 N12        71.3287   51.5769   12.5619 N.ar      1 MOL    -0.2334
      8 C13        72.1847   50.8793   13.3386 C.ar      1 MOL     0.1153
      9 C15        71.7533   48.8936   12.0285 C.ar      1 MOL     0.0138
     10 C14        72.4144   49.5192   13.0926 C.ar      1 MOL     0.0445
     11 N16        72.7951   51.4864   14.3561 N.pl3     1 MOL    -0.3432
     12 C3         69.8189   51.7571   10.7494 C.ar      1 MOL     0.0295
     13 C2         69.1456   51.1766    9.6717 C.ar      1 MOL     0.0108
     14 C1         69.3254   49.8240    9.3783 C.ar      1 MOL    -0.0171
     15 C11        66.8947   48.0743    7.3491 C.2       1 MOL     0.0459
     16 S9         67.8807   48.5314    6.0765 S.3       1 MOL    -0.1054
     17 H161       73.1238   50.9455   15.1433 H         1 MOL     0.1442
     18 H162       72.9290   52.4874   14.3402 H         1 MOL     0.1442
@<TRIPOS>BOND
     1    2    1 ar
     2    1    7 ar
     3    1   12 ar
     4    3    2 ar
     5    2    9 ar
     6   14    3 ar
     7    4    5 1 
     8    4    6 2 
     9    4   14 1 
    10    5   15 2 
    11    6   16 1 
    12    7    8 ar
    13    8   10 ar
    14    8   11 1 
    15    9   10 ar
    16   12   13 ar
    17   13   14 ar
    18   15   16 1 
    19   17   11 1 
    20   18   11 1 
@<TRIPOS>SUBSTRUCTURE
1 MOL         1
@<TRIPOS>MOLECULE
query molecule
   18    20     1     0     0
SMALL
NO_CHARGE

@<TRIPOS>ATOM
      1 C4         68.5014   50.4821    8.9418 C.ar      1 MOL     0.0725
      2 C5         68.9663   49.2972    9.5179 C.ar      1 MOL     0.0009
      3 C6         69.8297   49.3515   10.6125 C.ar      1 MOL     0.0187
      4 C7         71.1079   50.6531   12.2383 C.2       1 MOL    -0.0112
      5 C8         70.7927   51.4134   13.3257 C.2       1 MOL     0.0163
      6 C10        72.2606   49.9733   12.3785 C.2       1 MOL     0.0538
      7 N12        67.6546   50.4514    7.9002 N.ar      1 MOL    -0.2334
      8 C13        67.2284   49.2833    7.3741 C.ar      1 MOL     0.1153
      9 C15        68.5504   48.0721    8.9960 C.ar      1 MOL     0.0138
     10 C14        67.6697   48.0651    7.9074 C.ar      1 MOL     0.0445
     11 N16        66.4013   49.2944    6.3289 N.pl3     1 MOL    -0.3432
     12 C3         68.9037   51.7094    9.4667 C.ar      1 MOL     0.0295
     13 C2         69.7738   51.7637   10.5584 C.ar      1 MOL     0.0108
     14 C1         70.2555   50.5856   11.1309 C.ar      1 MOL    -0.0171
     15 C11        71.6404   51.4234   14.3663 C.2       1 MOL     0.0459
     16 S9         72.8760   50.3886   13.9156 S.3       1 MOL    -0.1054
     17 H161       65.4187   49.4845    6.4645 H         1 MOL     0.1442
     18 H162       66.7572   49.1128    5.4013 H         1 MOL     0.1442
@<TRIPOS>BOND
     1    2    1 ar
     2    1    7 ar
     3    1   12 ar
     4    3    2 ar
     5    2    9 ar
     6   14    3 ar
     7    4    5 1 
     8    4    6 2 
     9    4   14 1 
    10    5   15 2 
    11    6   16 1 
    12    7    8 ar
    13    8   10 ar
    14    8   11 1 
    15    9   10 ar
    16   12   13 ar
    17   13   14 ar
    18   15   16 1 
    19   17   11 1 
    20   18   11 1 
@<TRIPOS>SUBSTRUCTURE
1 MOL         1
@<TRIPOS>MOLECULE
query molecule
   18    20     1     0     0
SMALL
NO_CHARGE

@<TRIPOS>ATOM
      1 C4         76.9013   45.0365    9.4291 C.ar      1 MOL     0.0725
      2 C5         77.2186   46.1332   10.2345 C.ar      1 MOL     0.0009
      3 C6         76.2376   47.0788   10.5349 C.ar      1 MOL     0.0187
      4 C7         73.9405   47.8857   10.3268 C.2       1 MOL    -0.0112
      5 C8         73.3962   48.6804    9.3616 C.2       1 MOL     0.0163
      6 C10        73.3915   48.0693   11.5415 C.2       1 MOL     0.0538
      7 N12        77.8258   44.1052    9.1443 N.ar      1 MOL    -0.2334
      8 C13        79.0862   44.1968    9.6192 C.ar      1 MOL     0.1153
      9 C15        78.5132   46.2621   10.7380 C.ar      1 MOL     0.0138
     10 C14        79.4612   45.2802   10.4247 C.ar      1 MOL     0.0445
     11 N16        79.9801   43.2611    9.2999 N.pl3     1 MOL    -0.3432
     12 C3         75.6059   44.8957    8.9332 C.ar      1 MOL     0.0295
     13 C2         74.6256   45.8462    9.2283 C.ar      1 MOL     0.0108
     14 C1         74.9370   46.9531   10.0194 C.ar      1 MOL    -0.0171
     15 C11        72.4296   49.5428    9.7133 C.2       1 MOL     0.0459
     16 S9         72.2121   49.2889   11.3531 S.3       1 MOL    -0.1054
     17 H161       79.9527   42.3600    9.7554 H         1 MOL     0.1442
     18 H162       80.6849   43.4530    8.6024 H         1 MOL     0.1442
@<TRIPOS>BOND
     1    2    1 ar
     2    1    7 ar
     3    1   12 ar
     4    3    2 ar
     5    2    9 ar
     6   14    3 ar
     7    4    5 1 
     8    4    6 2 
     9    4   14 1 
    10    5   15 2 
    11    6   16 1 
    12    7    8 ar
    13    8   10 ar
    14    8   11 1 
    15    9   10 ar
    16   12   13 ar
    17   13   14 ar
    18   15   16 1 
    19   17   11 1 
    20   18   11 1 
@<TRIPOS>SUBSTRUCTURE
1 MOL         1
@<TRIPOS>MOLECULE
query molecule
   18    20     1     0     0
SMALL
NO_CHARGE

@<TRIPOS>ATOM
      1 C4         69.7455   50.1644    4.6340 C.ar      1 MOL     0.0725
      2 C5         71.1350   50.2162    4.4972 C.ar      1 MOL     0.0009
      3 C6         71.9463   50.1195    5.6281 C.ar      1 MOL     0.0187
      4 C7         72.1854   49.8768    8.0479 C.2       1 MOL    -0.0112
      5 C8         71.8097   49.0944    9.0997 C.2       1 MOL     0.0163
      6 C10        73.3877   50.4569    8.2168 C.2       1 MOL     0.0538
      7 N12        68.9477   50.2362    3.5563 N.ar      1 MOL    -0.2334
      8 C13        69.4558   50.3640    2.3121 C.ar      1 MOL     0.1153
      9 C15        71.6939   50.3532    3.2264 C.ar      1 MOL     0.0138
     10 C14        70.8418   50.4296    2.1178 C.ar      1 MOL     0.0445
     11 N16        68.6303   50.4495    1.2690 N.pl3     1 MOL    -0.3432
     12 C3         69.1813   50.0151    5.9002 C.ar      1 MOL     0.0295
     13 C2         69.9937   49.9252    7.0332 C.ar      1 MOL     0.0108
     14 C1         71.3821   49.9914    6.9081 C.ar      1 MOL    -0.0171
     15 C11        72.6310   49.0084   10.1579 C.2       1 MOL     0.0459
     16 S9         73.9444   49.9632    9.7531 S.3       1 MOL    -0.1054
     17 H161       68.5113   51.3307    0.7901 H         1 MOL     0.1442
     18 H162       68.1239   49.6331    0.9575 H         1 MOL     0.1442
@<TRIPOS>BOND
     1    2    1 ar
     2    1    7 ar
     3    1   12 ar
     4    3    2 ar
     5    2    9 ar
     6   14    3 ar
     7    4    5 1 
     8    4    6 2 
     9    4   14 1 
    10    5   15 2 
    11    6   16 1 
    12    7    8 ar
    13    8   10 ar
    14    8   11 1 
    15    9   10 ar
    16   12   13 ar
    17   13   14 ar
    18   15   16 1 
    19   17   11 1 
    20   18   11 1 
@<TRIPOS>SUBSTRUCTURE
1 MOL         1
@<TRIPOS>MOLECULE
query molecule
   18    20     1     0     0
SMALL
NO_CHARGE

@<TRIPOS>ATOM
      1 C4         65.2949   48.4078   17.3735 C.ar      1 MOL     0.0725
      2 C5         64.0263   48.9751   17.5182 C.ar      1 MOL     0.0009
      3 C6         63.3137   49.3757   16.3877 C.ar      1 MOL     0.0187
      4 C7         63.1541   49.6175   13.9612 C.2       1 MOL    -0.0112
      5 C8         61.7905   49.6348   13.9524 C.2       1 MOL     0.0163
      6 C10        63.7006   50.0395   12.8064 C.2       1 MOL     0.0538
      7 N12        65.9889   47.9980   18.4476 N.ar      1 MOL    -0.2334
      8 C13        65.4909   48.1221   19.6963 C.ar      1 MOL     0.1153
      9 C15        63.4833   49.1234   18.7947 C.ar      1 MOL     0.0138
     10 C14        64.2271   48.6918   19.8999 C.ar      1 MOL     0.0445
     11 N16        66.2177   47.7193   20.7384 N.pl3     1 MOL    -0.3432
     12 C3         65.8377   48.2456   16.0996 C.ar      1 MOL     0.0295
     13 C2         65.1269   48.6532   14.9680 C.ar      1 MOL     0.0108
     14 C1         63.8655   49.2349   15.1036 C.ar      1 MOL    -0.0171
     15 C11        61.1634   50.0297   12.8333 C.2       1 MOL     0.0459
     16 S9         62.3971   50.4108   11.7687 S.3       1 MOL    -0.1054
     17 H161       67.1620   48.0577   20.8566 H         1 MOL     0.1442
     18 H162       65.8243   47.0757   21.4100 H         1 MOL     0.1442
@<TRIPOS>BOND
     1    2    1 ar
     2    1    7 ar
     3    1   12 ar
     4    3    2 ar
     5    2    9 ar
     6   14    3 ar
     7    4    5 1 
     8    4    6 2 
     9    4   14 1 
    10    5   15 2 
    11    6   16 1 
    12    7    8 ar
    13    8   10 ar
    14    8   11 1 
    15    9   10 ar
    16   12   13 ar
    17   13   14 ar
    18   15   16 1 
    19   17   11 1 
    20   18   11 1 
@<TRIPOS>SUBSTRUCTURE
1 MOL         1
@<TRIPOS>MOLECULE
query molecule
   18    20     1     0     0
SMALL
NO_CHARGE

@<TRIPOS>ATOM
      1 C4         60.9725   48.2713   15.7856 C.ar      1 MOL     0.0725
      2 C5         60.5359   46.9859   15.4557 C.ar      1 MOL     0.0009
      3 C6         60.8665   45.9094   16.2793 C.ar      1 MOL     0.0187
      4 C7         61.9768   45.0301   18.2707 C.2       1 MOL    -0.0112
      5 C8         63.2035   44.4368   18.2173 C.2       1 MOL     0.0163
      6 C10        61.1757   44.5149   19.2211 C.2       1 MOL     0.0538
      7 N12        60.6488   49.3235   15.0166 N.ar      1 MOL    -0.2334
      8 C13        59.8988   49.1771   13.9036 C.ar      1 MOL     0.1153
      9 C15        59.7634   46.7975   14.3093 C.ar      1 MOL     0.0138
     10 C14        59.4413   47.9092   13.5211 C.ar      1 MOL     0.0445
     11 N16        59.6131   50.2436   13.1568 N.pl3     1 MOL    -0.3432
     12 C3         61.7343   48.4678   16.9366 C.ar      1 MOL     0.0295
     13 C2         62.0712   47.3888   17.7576 C.ar      1 MOL     0.0108
     14 C1         61.6525   46.0988   17.4280 C.ar      1 MOL    -0.0171
     15 C11        63.4634   43.4284   19.0643 C.2       1 MOL     0.0459
     16 S9         62.0670   43.2678   19.9724 S.3       1 MOL    -0.1054
     17 H161       59.3405   50.1258   12.1915 H         1 MOL     0.1442
     18 H162       59.6692   51.1695   13.5563 H         1 MOL     0.1442
@<TRIPOS>BOND
     1    2    1 ar
     2    1    7 ar
     3    1   12 ar
     4    3    2 ar
     5    2    9 ar
     6   14    3 ar
     7    4    5 1 
     8    4    6 2 
     9    4   14 1 
    10    5   15 2 
    11    6   16 1 
    12    7    8 ar
    13    8   10 ar
    14    8   11 1 
    15    9   10 ar
    16   12   13 ar
    17   13   14 ar
    18   15   16 1 
    19   17   11 1 
    20   18   11 1 
@<TRIPOS>SUBSTRUCTURE
1 MOL         1
@<TRIPOS>MOLECULE
query molecule
   18    20     1     0     0
SMALL
NO_CHARGE

@<TRIPOS>ATOM
      1 C4         63.6355   47.4327    8.1218 C.ar      1 MOL     0.0725
      2 C5         64.2409   46.4657    8.9284 C.ar      1 MOL     0.0009
      3 C6         65.5976   46.5713    9.2364 C.ar      1 MOL     0.0187
      4 C7         67.7268   47.7547    9.0426 C.2       1 MOL    -0.0112
      5 C8         68.6860   47.1525    8.2831 C.2       1 MOL     0.0163
      6 C10        68.2285   48.4873   10.0536 C.2       1 MOL     0.0538
      7 N12        62.3269   47.3598    7.8296 N.ar      1 MOL    -0.2334
      8 C13        61.5563   46.3551    8.2982 C.ar      1 MOL     0.1153
      9 C15        63.4754   45.4106    9.4254 C.ar      1 MOL     0.0138
     10 C14        62.1136   45.3538    9.1044 C.ar      1 MOL     0.0445
     11 N16        60.2649   46.3081    7.9716 N.pl3     1 MOL    -0.3432
     12 C3         64.3925   48.4962    7.6323 C.ar      1 MOL     0.0295
     13 C2         65.7525   48.5981    7.9351 C.ar      1 MOL     0.0108
     14 C1         66.3695   47.6288    8.7274 C.ar      1 MOL    -0.0171
     15 C11        69.9729   47.3253    8.6234 C.2       1 MOL     0.0459
     16 S9         69.9254   48.3246    9.9649 S.3       1 MOL    -0.1054
     17 H161       59.5614   46.5346    8.6600 H         1 MOL     0.1442
     18 H162       59.9898   46.0460    7.0358 H         1 MOL     0.1442
@<TRIPOS>BOND
     1    2    1 ar
     2    1    7 ar
     3    1   12 ar
     4    3    2 ar
     5    2    9 ar
     6   14    3 ar
     7    4    5 1 
     8    4    6 2 
     9    4   14 1 
    10    5   15 2 
    11    6   16 1 
    12    7    8 ar
    13    8   10 ar
    14    8   11 1 
    15    9   10 ar
    16   12   13 ar
    17   13   14 ar
    18   15   16 1 
    19   17   11 1 
    20   18   11 1 
@<TRIPOS>SUBSTRUCTURE
1 MOL         1
@<TRIPOS>MOLECULE
query molecule
   18    20     1     0     0
SMALL
NO_CHARGE

@<TRIPOS>ATOM
      1 C4         76.9090   44.2558   10.3221 C.ar      1 MOL     0.0725
      2 C5         78.0489   45.0515   10.1827 C.ar      1 MOL     0.0009
      3 C6         78.8073   44.9764    9.0141 C.ar      1 MOL     0.0187
      4 C7         79.1932   44.0209    6.7983 C.2       1 MOL    -0.0112
      5 C8         78.6127   43.6451    5.6229 C.2       1 MOL     0.0163
      6 C10        80.4935   44.3431    6.6722 C.2       1 MOL     0.0538
      7 N12        76.1547   44.3273   11.4307 N.ar      1 MOL    -0.2334
      8 C13        76.4707   45.1616   12.4441 C.ar      1 MOL     0.1153
      9 C15        78.4079   45.9211   11.2128 C.ar      1 MOL     0.0138
     10 C14        77.6079   45.9759   12.3608 C.ar      1 MOL     0.0445
     11 N16        75.7065   45.1912   13.5357 N.pl3     1 MOL    -0.3432
     12 C3         76.5381   43.3938    9.2909 C.ar      1 MOL     0.0295
     13 C2         77.3015   43.3136    8.1237 C.ar      1 MOL     0.0108
     14 C1         78.4503   44.0933    7.9816 C.ar      1 MOL    -0.0171
     15 C11        79.3718   43.6131    4.5164 C.2       1 MOL     0.0459
     16 S9         80.8856   44.1115    5.0271 S.3       1 MOL    -0.1054
     17 H161       76.1069   45.4517   14.4256 H         1 MOL     0.1442
     18 H162       74.7270   44.9530   13.4731 H         1 MOL     0.1442
@<TRIPOS>BOND
     1    2    1 ar
     2    1    7 ar
     3    1   12 ar
     4    3    2 ar
     5    2    9 ar
     6   14    3 ar
     7    4    5 1 
     8    4    6 2 
     9    4   14 1 
    10    5   15 2 
    11    6   16 1 
    12    7    8 ar
    13    8   10 ar
    14    8   11 1 
    15    9   10 ar
    16   12   13 ar
    17   13   14 ar
    18   15   16 1 
    19   17   11 1 
    20   18   11 1 
@<TRIPOS>SUBSTRUCTURE
1 MOL         1
