@<TRIPOS>MOLECULE
query molecule
   18    20     1     0     0
SMALL
NO_CHARGE

@<TRIPOS>ATOM
      1 C4         68.7880   50.1600    8.6480 C.ar      1 MOL     0.0725
      2 C5         69.2030   49.0520    9.3910 C.ar      1 MOL     0.0009
      3 C6         69.9150   49.2400   10.5760 C.ar      1 MOL     0.0187
      4 C7         70.9380   50.7340   12.2170 C.2       1 MOL    -0.0112
      5 C8         70.5800   51.7230   13.0850 C.2       1 MOL     0.0163
      6 C10        71.9660   49.9850   12.6560 C.2       1 MOL     0.0538
      7 N12        68.0850   50.0010    7.5150 N.ar      1 MOL    -0.2334
      8 C13        67.7600   48.7740    7.0550 C.ar      1 MOL     0.1153
      9 C15        68.8890   47.7690    8.9420 C.ar      1 MOL     0.0138
     10 C14        68.1580   47.6280    7.7560 C.ar      1 MOL     0.0445
     11 N16        67.0760   48.6570    5.9170 N.pl3     1 MOL    -0.3432
     12 C3         69.0880   51.4450    9.0980 C.ar      1 MOL     0.0295
     13 C2         69.8070   51.6330   10.2810 C.ar      1 MOL     0.0108
     14 C1         70.2390   50.5320   11.0220 C.ar      1 MOL    -0.0171
     15 C11        71.2760   51.8560   14.2250 C.2       1 MOL     0.0459
     16 S9         72.4190   50.6350   14.1680 S.3       1 MOL    -0.1054
     17 H161       66.8369   47.7417    5.5633 H         1 MOL     0.1442
     18 H162       66.7968   49.4837    5.4084 H         1 MOL     0.1442
@<TRIPOS>BOND
     1    2    1 ar
     2    1    7 ar
     3    1   12 ar
     4    3    2 ar
     5    2    9 ar
     6   14    3 ar
     7    4    5 1 
     8    4    6 2 
     9    4   14 1 
    10    5   15 2 
    11    6   16 1 
    12    7    8 ar
    13    8   10 ar
    14    8   11 1 
    15    9   10 ar
    16   12   13 ar
    17   13   14 ar
    18   15   16 1 
    19   17   11 1 
    20   18   11 1 
@<TRIPOS>SUBSTRUCTURE
1 MOL         1
